<?xml version="1.0" encoding="UTF-8"?>

<!-- generated on 2026-04-04T01:29:18.792387+02:00 by Eclipse SUMO netconvert 1.25.0
<netconvertConfiguration xmlns:xsi="http://www.w3.org/2001/XMLSchema-instance" xsi:noNamespaceSchemaLocation="http://sumo.dlr.de/xsd/netconvertConfiguration.xsd">

    <input>
        <node-files value="E:\Research\Emergent Social Behaviour and Dilemmas in MARL\Applied\RP-5\sumo_network_5x5\5x5-grid.nod.xml"/>
        <edge-files value="E:\Research\Emergent Social Behaviour and Dilemmas in MARL\Applied\RP-5\sumo_network_5x5\5x5-grid.edg.xml"/>
        <connection-files value="E:\Research\Emergent Social Behaviour and Dilemmas in MARL\Applied\RP-5\sumo_network_5x5\5x5-grid.con.xml"/>
    </input>

    <output>
        <output-file value="E:\Research\Emergent Social Behaviour and Dilemmas in MARL\Applied\RP-5\sumo_network_5x5\5x5-grid.net.xml"/>
    </output>

    <tls_building>
        <tls.default-type value="static"/>
        <tls.layout value="opposites"/>
    </tls_building>

    <junctions>
        <no-turnarounds value="true"/>
    </junctions>

</netconvertConfiguration>
-->

<net version="1.20" junctionCornerDetail="5" limitTurnSpeed="5.50" xmlns:xsi="http://www.w3.org/2001/XMLSchema-instance" xsi:noNamespaceSchemaLocation="http://sumo.dlr.de/xsd/net_file.xsd">

    <location netOffset="-100.00,-100.00" convBoundary="0.00,0.00,1600.00,1600.00" origBoundary="100.00,100.00,1700.00,1700.00" projParameter="!"/>

    <edge id=":J1_0" function="internal">
        <lane id=":J1_0_0" index="0" speed="6.51" length="9.03" shape="192.00,1413.60 191.65,1411.15 190.60,1409.40 188.85,1408.35 186.40,1408.00"/>
    </edge>
    <edge id=":J1_1" function="internal">
        <lane id=":J1_1_0" index="0" speed="13.89" length="27.20" shape="195.20,1413.60 195.20,1386.40"/>
    </edge>
    <edge id=":J1_2" function="internal">
        <lane id=":J1_2_0" index="0" speed="10.36" length="12.07" shape="198.40,1413.60 199.35,1406.95 202.10,1402.36"/>
    </edge>
    <edge id=":J1_12" function="internal">
        <lane id=":J1_12_0" index="0" speed="10.36" length="12.44" shape="202.10,1402.36 202.20,1402.20 206.95,1399.35 213.60,1398.40"/>
    </edge>
    <edge id=":J1_3" function="internal">
        <lane id=":J1_3_0" index="0" speed="11.87" length="19.68" shape="213.60,1408.00 206.47,1405.88 199.47,1400.53 197.38,1397.80"/>
    </edge>
    <edge id=":J1_4" function="internal">
        <lane id=":J1_4_0" index="0" speed="13.89" length="27.20" shape="213.60,1404.80 186.40,1404.80"/>
    </edge>
    <edge id=":J1_5" function="internal">
        <lane id=":J1_5_0" index="0" speed="9.26" length="5.01" shape="213.60,1401.60 208.64,1402.31"/>
    </edge>
    <edge id=":J1_13" function="internal">
        <lane id=":J1_13_0" index="0" speed="11.87" length="12.81" shape="197.38,1397.80 194.12,1393.53 192.00,1386.40"/>
    </edge>
    <edge id=":J1_14" function="internal">
        <lane id=":J1_14_0" index="0" speed="9.26" length="14.34" shape="208.64,1402.31 208.35,1402.35 204.60,1404.60 202.35,1408.35 201.60,1413.60"/>
    </edge>
    <edge id=":J1_6" function="internal">
        <lane id=":J1_6_0" index="0" speed="6.51" length="9.03" shape="208.00,1386.40 208.35,1388.85 209.40,1390.60 211.15,1391.65 213.60,1392.00"/>
    </edge>
    <edge id=":J1_7" function="internal">
        <lane id=":J1_7_0" index="0" speed="13.89" length="27.20" shape="204.80,1386.40 204.80,1413.60"/>
    </edge>
    <edge id=":J1_8" function="internal">
        <lane id=":J1_8_0" index="0" speed="10.36" length="12.07" shape="201.60,1386.40 200.65,1393.05 197.90,1397.64"/>
    </edge>
    <edge id=":J1_15" function="internal">
        <lane id=":J1_15_0" index="0" speed="10.36" length="12.44" shape="197.90,1397.64 197.80,1397.80 193.05,1400.65 186.40,1401.60"/>
    </edge>
    <edge id=":J1_9" function="internal">
        <lane id=":J1_9_0" index="0" speed="11.87" length="19.68" shape="186.40,1392.00 193.52,1394.12 200.53,1399.47 202.62,1402.20"/>
    </edge>
    <edge id=":J1_10" function="internal">
        <lane id=":J1_10_0" index="0" speed="13.89" length="27.20" shape="186.40,1395.20 213.60,1395.20"/>
    </edge>
    <edge id=":J1_11" function="internal">
        <lane id=":J1_11_0" index="0" speed="9.26" length="5.01" shape="186.40,1398.40 191.36,1397.69"/>
    </edge>
    <edge id=":J1_16" function="internal">
        <lane id=":J1_16_0" index="0" speed="11.87" length="12.81" shape="202.62,1402.20 205.88,1406.47 208.00,1413.60"/>
    </edge>
    <edge id=":J1_17" function="internal">
        <lane id=":J1_17_0" index="0" speed="9.26" length="14.34" shape="191.36,1397.69 191.65,1397.65 195.40,1395.40 197.65,1391.65 198.40,1386.40"/>
    </edge>
    <edge id=":J10_0" function="internal">
        <lane id=":J10_0_0" index="0" speed="6.51" length="9.03" shape="1392.00,1113.60 1391.65,1111.15 1390.60,1109.40 1388.85,1108.35 1386.40,1108.00"/>
    </edge>
    <edge id=":J10_1" function="internal">
        <lane id=":J10_1_0" index="0" speed="13.89" length="27.20" shape="1395.20,1113.60 1395.20,1086.40"/>
    </edge>
    <edge id=":J10_2" function="internal">
        <lane id=":J10_2_0" index="0" speed="10.36" length="12.07" shape="1398.40,1113.60 1399.35,1106.95 1402.10,1102.36"/>
    </edge>
    <edge id=":J10_12" function="internal">
        <lane id=":J10_12_0" index="0" speed="10.36" length="12.44" shape="1402.10,1102.36 1402.20,1102.20 1406.95,1099.35 1413.60,1098.40"/>
    </edge>
    <edge id=":J10_3" function="internal">
        <lane id=":J10_3_0" index="0" speed="11.87" length="19.68" shape="1413.60,1108.00 1406.47,1105.88 1399.47,1100.53 1397.38,1097.80"/>
    </edge>
    <edge id=":J10_4" function="internal">
        <lane id=":J10_4_0" index="0" speed="13.89" length="27.20" shape="1413.60,1104.80 1386.40,1104.80"/>
    </edge>
    <edge id=":J10_5" function="internal">
        <lane id=":J10_5_0" index="0" speed="9.26" length="5.01" shape="1413.60,1101.60 1408.64,1102.31"/>
    </edge>
    <edge id=":J10_13" function="internal">
        <lane id=":J10_13_0" index="0" speed="11.87" length="12.81" shape="1397.38,1097.80 1394.12,1093.53 1392.00,1086.40"/>
    </edge>
    <edge id=":J10_14" function="internal">
        <lane id=":J10_14_0" index="0" speed="9.26" length="14.34" shape="1408.64,1102.31 1408.35,1102.35 1404.60,1104.60 1402.35,1108.35 1401.60,1113.60"/>
    </edge>
    <edge id=":J10_6" function="internal">
        <lane id=":J10_6_0" index="0" speed="6.51" length="9.03" shape="1408.00,1086.40 1408.35,1088.85 1409.40,1090.60 1411.15,1091.65 1413.60,1092.00"/>
    </edge>
    <edge id=":J10_7" function="internal">
        <lane id=":J10_7_0" index="0" speed="13.89" length="27.20" shape="1404.80,1086.40 1404.80,1113.60"/>
    </edge>
    <edge id=":J10_8" function="internal">
        <lane id=":J10_8_0" index="0" speed="10.36" length="12.07" shape="1401.60,1086.40 1400.65,1093.05 1397.90,1097.64"/>
    </edge>
    <edge id=":J10_15" function="internal">
        <lane id=":J10_15_0" index="0" speed="10.36" length="12.44" shape="1397.90,1097.64 1397.80,1097.80 1393.05,1100.65 1386.40,1101.60"/>
    </edge>
    <edge id=":J10_9" function="internal">
        <lane id=":J10_9_0" index="0" speed="11.87" length="19.68" shape="1386.40,1092.00 1393.53,1094.12 1400.53,1099.47 1402.62,1102.20"/>
    </edge>
    <edge id=":J10_10" function="internal">
        <lane id=":J10_10_0" index="0" speed="13.89" length="27.20" shape="1386.40,1095.20 1413.60,1095.20"/>
    </edge>
    <edge id=":J10_11" function="internal">
        <lane id=":J10_11_0" index="0" speed="9.26" length="5.01" shape="1386.40,1098.40 1391.36,1097.69"/>
    </edge>
    <edge id=":J10_16" function="internal">
        <lane id=":J10_16_0" index="0" speed="11.87" length="12.81" shape="1402.62,1102.20 1405.88,1106.47 1408.00,1113.60"/>
    </edge>
    <edge id=":J10_17" function="internal">
        <lane id=":J10_17_0" index="0" speed="9.26" length="14.34" shape="1391.36,1097.69 1391.65,1097.65 1395.40,1095.40 1397.65,1091.65 1398.40,1086.40"/>
    </edge>
    <edge id=":J11_0" function="internal">
        <lane id=":J11_0_0" index="0" speed="6.51" length="9.03" shape="192.00,813.60 191.65,811.15 190.60,809.40 188.85,808.35 186.40,808.00"/>
    </edge>
    <edge id=":J11_1" function="internal">
        <lane id=":J11_1_0" index="0" speed="13.89" length="27.20" shape="195.20,813.60 195.20,786.40"/>
    </edge>
    <edge id=":J11_2" function="internal">
        <lane id=":J11_2_0" index="0" speed="10.36" length="12.07" shape="198.40,813.60 199.35,806.95 202.10,802.36"/>
    </edge>
    <edge id=":J11_12" function="internal">
        <lane id=":J11_12_0" index="0" speed="10.36" length="12.44" shape="202.10,802.36 202.20,802.20 206.95,799.35 213.60,798.40"/>
    </edge>
    <edge id=":J11_3" function="internal">
        <lane id=":J11_3_0" index="0" speed="11.87" length="19.68" shape="213.60,808.00 206.47,805.88 199.47,800.53 197.38,797.80"/>
    </edge>
    <edge id=":J11_4" function="internal">
        <lane id=":J11_4_0" index="0" speed="13.89" length="27.20" shape="213.60,804.80 186.40,804.80"/>
    </edge>
    <edge id=":J11_5" function="internal">
        <lane id=":J11_5_0" index="0" speed="9.26" length="5.01" shape="213.60,801.60 208.64,802.31"/>
    </edge>
    <edge id=":J11_13" function="internal">
        <lane id=":J11_13_0" index="0" speed="11.87" length="12.81" shape="197.38,797.80 194.12,793.52 192.00,786.40"/>
    </edge>
    <edge id=":J11_14" function="internal">
        <lane id=":J11_14_0" index="0" speed="9.26" length="14.34" shape="208.64,802.31 208.35,802.35 204.60,804.60 202.35,808.35 201.60,813.60"/>
    </edge>
    <edge id=":J11_6" function="internal">
        <lane id=":J11_6_0" index="0" speed="6.51" length="9.03" shape="208.00,786.40 208.35,788.85 209.40,790.60 211.15,791.65 213.60,792.00"/>
    </edge>
    <edge id=":J11_7" function="internal">
        <lane id=":J11_7_0" index="0" speed="13.89" length="27.20" shape="204.80,786.40 204.80,813.60"/>
    </edge>
    <edge id=":J11_8" function="internal">
        <lane id=":J11_8_0" index="0" speed="10.36" length="12.07" shape="201.60,786.40 200.65,793.05 197.90,797.64"/>
    </edge>
    <edge id=":J11_15" function="internal">
        <lane id=":J11_15_0" index="0" speed="10.36" length="12.44" shape="197.90,797.64 197.80,797.80 193.05,800.65 186.40,801.60"/>
    </edge>
    <edge id=":J11_9" function="internal">
        <lane id=":J11_9_0" index="0" speed="11.87" length="19.68" shape="186.40,792.00 193.52,794.12 200.53,799.47 202.62,802.20"/>
    </edge>
    <edge id=":J11_10" function="internal">
        <lane id=":J11_10_0" index="0" speed="13.89" length="27.20" shape="186.40,795.20 213.60,795.20"/>
    </edge>
    <edge id=":J11_11" function="internal">
        <lane id=":J11_11_0" index="0" speed="9.26" length="5.01" shape="186.40,798.40 191.36,797.69"/>
    </edge>
    <edge id=":J11_16" function="internal">
        <lane id=":J11_16_0" index="0" speed="11.87" length="12.81" shape="202.62,802.20 205.88,806.48 208.00,813.60"/>
    </edge>
    <edge id=":J11_17" function="internal">
        <lane id=":J11_17_0" index="0" speed="9.26" length="14.34" shape="191.36,797.69 191.65,797.65 195.40,795.40 197.65,791.65 198.40,786.40"/>
    </edge>
    <edge id=":J12_0" function="internal">
        <lane id=":J12_0_0" index="0" speed="6.51" length="9.03" shape="492.00,813.60 491.65,811.15 490.60,809.40 488.85,808.35 486.40,808.00"/>
    </edge>
    <edge id=":J12_1" function="internal">
        <lane id=":J12_1_0" index="0" speed="13.89" length="27.20" shape="495.20,813.60 495.20,786.40"/>
    </edge>
    <edge id=":J12_2" function="internal">
        <lane id=":J12_2_0" index="0" speed="10.36" length="12.07" shape="498.40,813.60 499.35,806.95 502.10,802.36"/>
    </edge>
    <edge id=":J12_12" function="internal">
        <lane id=":J12_12_0" index="0" speed="10.36" length="12.44" shape="502.10,802.36 502.20,802.20 506.95,799.35 513.60,798.40"/>
    </edge>
    <edge id=":J12_3" function="internal">
        <lane id=":J12_3_0" index="0" speed="11.87" length="19.68" shape="513.60,808.00 506.48,805.88 499.47,800.53 497.38,797.80"/>
    </edge>
    <edge id=":J12_4" function="internal">
        <lane id=":J12_4_0" index="0" speed="13.89" length="27.20" shape="513.60,804.80 486.40,804.80"/>
    </edge>
    <edge id=":J12_5" function="internal">
        <lane id=":J12_5_0" index="0" speed="9.26" length="5.01" shape="513.60,801.60 508.64,802.31"/>
    </edge>
    <edge id=":J12_13" function="internal">
        <lane id=":J12_13_0" index="0" speed="11.87" length="12.81" shape="497.38,797.80 494.12,793.52 492.00,786.40"/>
    </edge>
    <edge id=":J12_14" function="internal">
        <lane id=":J12_14_0" index="0" speed="9.26" length="14.34" shape="508.64,802.31 508.35,802.35 504.60,804.60 502.35,808.35 501.60,813.60"/>
    </edge>
    <edge id=":J12_6" function="internal">
        <lane id=":J12_6_0" index="0" speed="6.51" length="9.03" shape="508.00,786.40 508.35,788.85 509.40,790.60 511.15,791.65 513.60,792.00"/>
    </edge>
    <edge id=":J12_7" function="internal">
        <lane id=":J12_7_0" index="0" speed="13.89" length="27.20" shape="504.80,786.40 504.80,813.60"/>
    </edge>
    <edge id=":J12_8" function="internal">
        <lane id=":J12_8_0" index="0" speed="10.36" length="12.07" shape="501.60,786.40 500.65,793.05 497.90,797.64"/>
    </edge>
    <edge id=":J12_15" function="internal">
        <lane id=":J12_15_0" index="0" speed="10.36" length="12.44" shape="497.90,797.64 497.80,797.80 493.05,800.65 486.40,801.60"/>
    </edge>
    <edge id=":J12_9" function="internal">
        <lane id=":J12_9_0" index="0" speed="11.87" length="19.68" shape="486.40,792.00 493.52,794.12 500.53,799.47 502.62,802.20"/>
    </edge>
    <edge id=":J12_10" function="internal">
        <lane id=":J12_10_0" index="0" speed="13.89" length="27.20" shape="486.40,795.20 513.60,795.20"/>
    </edge>
    <edge id=":J12_11" function="internal">
        <lane id=":J12_11_0" index="0" speed="9.26" length="5.01" shape="486.40,798.40 491.36,797.69"/>
    </edge>
    <edge id=":J12_16" function="internal">
        <lane id=":J12_16_0" index="0" speed="11.87" length="12.81" shape="502.62,802.20 505.88,806.48 508.00,813.60"/>
    </edge>
    <edge id=":J12_17" function="internal">
        <lane id=":J12_17_0" index="0" speed="9.26" length="14.34" shape="491.36,797.69 491.65,797.65 495.40,795.40 497.65,791.65 498.40,786.40"/>
    </edge>
    <edge id=":J13_0" function="internal">
        <lane id=":J13_0_0" index="0" speed="6.51" length="9.03" shape="792.00,813.60 791.65,811.15 790.60,809.40 788.85,808.35 786.40,808.00"/>
    </edge>
    <edge id=":J13_1" function="internal">
        <lane id=":J13_1_0" index="0" speed="13.89" length="27.20" shape="795.20,813.60 795.20,786.40"/>
    </edge>
    <edge id=":J13_2" function="internal">
        <lane id=":J13_2_0" index="0" speed="10.36" length="12.07" shape="798.40,813.60 799.35,806.95 802.10,802.36"/>
    </edge>
    <edge id=":J13_12" function="internal">
        <lane id=":J13_12_0" index="0" speed="10.36" length="12.44" shape="802.10,802.36 802.20,802.20 806.95,799.35 813.60,798.40"/>
    </edge>
    <edge id=":J13_3" function="internal">
        <lane id=":J13_3_0" index="0" speed="11.87" length="19.68" shape="813.60,808.00 806.48,805.88 799.47,800.53 797.38,797.80"/>
    </edge>
    <edge id=":J13_4" function="internal">
        <lane id=":J13_4_0" index="0" speed="13.89" length="27.20" shape="813.60,804.80 786.40,804.80"/>
    </edge>
    <edge id=":J13_5" function="internal">
        <lane id=":J13_5_0" index="0" speed="9.26" length="5.01" shape="813.60,801.60 808.64,802.31"/>
    </edge>
    <edge id=":J13_13" function="internal">
        <lane id=":J13_13_0" index="0" speed="11.87" length="12.81" shape="797.38,797.80 794.12,793.52 792.00,786.40"/>
    </edge>
    <edge id=":J13_14" function="internal">
        <lane id=":J13_14_0" index="0" speed="9.26" length="14.34" shape="808.64,802.31 808.35,802.35 804.60,804.60 802.35,808.35 801.60,813.60"/>
    </edge>
    <edge id=":J13_6" function="internal">
        <lane id=":J13_6_0" index="0" speed="6.51" length="9.03" shape="808.00,786.40 808.35,788.85 809.40,790.60 811.15,791.65 813.60,792.00"/>
    </edge>
    <edge id=":J13_7" function="internal">
        <lane id=":J13_7_0" index="0" speed="13.89" length="27.20" shape="804.80,786.40 804.80,813.60"/>
    </edge>
    <edge id=":J13_8" function="internal">
        <lane id=":J13_8_0" index="0" speed="10.36" length="12.07" shape="801.60,786.40 800.65,793.05 797.90,797.64"/>
    </edge>
    <edge id=":J13_15" function="internal">
        <lane id=":J13_15_0" index="0" speed="10.36" length="12.44" shape="797.90,797.64 797.80,797.80 793.05,800.65 786.40,801.60"/>
    </edge>
    <edge id=":J13_9" function="internal">
        <lane id=":J13_9_0" index="0" speed="11.87" length="19.68" shape="786.40,792.00 793.52,794.12 800.53,799.47 802.62,802.20"/>
    </edge>
    <edge id=":J13_10" function="internal">
        <lane id=":J13_10_0" index="0" speed="13.89" length="27.20" shape="786.40,795.20 813.60,795.20"/>
    </edge>
    <edge id=":J13_11" function="internal">
        <lane id=":J13_11_0" index="0" speed="9.26" length="5.01" shape="786.40,798.40 791.36,797.69"/>
    </edge>
    <edge id=":J13_16" function="internal">
        <lane id=":J13_16_0" index="0" speed="11.87" length="12.81" shape="802.62,802.20 805.88,806.48 808.00,813.60"/>
    </edge>
    <edge id=":J13_17" function="internal">
        <lane id=":J13_17_0" index="0" speed="9.26" length="14.34" shape="791.36,797.69 791.65,797.65 795.40,795.40 797.65,791.65 798.40,786.40"/>
    </edge>
    <edge id=":J14_0" function="internal">
        <lane id=":J14_0_0" index="0" speed="6.51" length="9.03" shape="1092.00,813.60 1091.65,811.15 1090.60,809.40 1088.85,808.35 1086.40,808.00"/>
    </edge>
    <edge id=":J14_1" function="internal">
        <lane id=":J14_1_0" index="0" speed="13.89" length="27.20" shape="1095.20,813.60 1095.20,786.40"/>
    </edge>
    <edge id=":J14_2" function="internal">
        <lane id=":J14_2_0" index="0" speed="10.36" length="12.07" shape="1098.40,813.60 1099.35,806.95 1102.10,802.36"/>
    </edge>
    <edge id=":J14_12" function="internal">
        <lane id=":J14_12_0" index="0" speed="10.36" length="12.44" shape="1102.10,802.36 1102.20,802.20 1106.95,799.35 1113.60,798.40"/>
    </edge>
    <edge id=":J14_3" function="internal">
        <lane id=":J14_3_0" index="0" speed="11.87" length="19.68" shape="1113.60,808.00 1106.47,805.88 1099.47,800.53 1097.38,797.80"/>
    </edge>
    <edge id=":J14_4" function="internal">
        <lane id=":J14_4_0" index="0" speed="13.89" length="27.20" shape="1113.60,804.80 1086.40,804.80"/>
    </edge>
    <edge id=":J14_5" function="internal">
        <lane id=":J14_5_0" index="0" speed="9.26" length="5.01" shape="1113.60,801.60 1108.64,802.31"/>
    </edge>
    <edge id=":J14_13" function="internal">
        <lane id=":J14_13_0" index="0" speed="11.87" length="12.81" shape="1097.38,797.80 1094.12,793.52 1092.00,786.40"/>
    </edge>
    <edge id=":J14_14" function="internal">
        <lane id=":J14_14_0" index="0" speed="9.26" length="14.34" shape="1108.64,802.31 1108.35,802.35 1104.60,804.60 1102.35,808.35 1101.60,813.60"/>
    </edge>
    <edge id=":J14_6" function="internal">
        <lane id=":J14_6_0" index="0" speed="6.51" length="9.03" shape="1108.00,786.40 1108.35,788.85 1109.40,790.60 1111.15,791.65 1113.60,792.00"/>
    </edge>
    <edge id=":J14_7" function="internal">
        <lane id=":J14_7_0" index="0" speed="13.89" length="27.20" shape="1104.80,786.40 1104.80,813.60"/>
    </edge>
    <edge id=":J14_8" function="internal">
        <lane id=":J14_8_0" index="0" speed="10.36" length="12.07" shape="1101.60,786.40 1100.65,793.05 1097.90,797.64"/>
    </edge>
    <edge id=":J14_15" function="internal">
        <lane id=":J14_15_0" index="0" speed="10.36" length="12.44" shape="1097.90,797.64 1097.80,797.80 1093.05,800.65 1086.40,801.60"/>
    </edge>
    <edge id=":J14_9" function="internal">
        <lane id=":J14_9_0" index="0" speed="11.87" length="19.68" shape="1086.40,792.00 1093.53,794.12 1100.53,799.47 1102.62,802.20"/>
    </edge>
    <edge id=":J14_10" function="internal">
        <lane id=":J14_10_0" index="0" speed="13.89" length="27.20" shape="1086.40,795.20 1113.60,795.20"/>
    </edge>
    <edge id=":J14_11" function="internal">
        <lane id=":J14_11_0" index="0" speed="9.26" length="5.01" shape="1086.40,798.40 1091.36,797.69"/>
    </edge>
    <edge id=":J14_16" function="internal">
        <lane id=":J14_16_0" index="0" speed="11.87" length="12.81" shape="1102.62,802.20 1105.88,806.48 1108.00,813.60"/>
    </edge>
    <edge id=":J14_17" function="internal">
        <lane id=":J14_17_0" index="0" speed="9.26" length="14.34" shape="1091.36,797.69 1091.65,797.65 1095.40,795.40 1097.65,791.65 1098.40,786.40"/>
    </edge>
    <edge id=":J15_0" function="internal">
        <lane id=":J15_0_0" index="0" speed="6.51" length="9.03" shape="1392.00,813.60 1391.65,811.15 1390.60,809.40 1388.85,808.35 1386.40,808.00"/>
    </edge>
    <edge id=":J15_1" function="internal">
        <lane id=":J15_1_0" index="0" speed="13.89" length="27.20" shape="1395.20,813.60 1395.20,786.40"/>
    </edge>
    <edge id=":J15_2" function="internal">
        <lane id=":J15_2_0" index="0" speed="10.36" length="12.07" shape="1398.40,813.60 1399.35,806.95 1402.10,802.36"/>
    </edge>
    <edge id=":J15_12" function="internal">
        <lane id=":J15_12_0" index="0" speed="10.36" length="12.44" shape="1402.10,802.36 1402.20,802.20 1406.95,799.35 1413.60,798.40"/>
    </edge>
    <edge id=":J15_3" function="internal">
        <lane id=":J15_3_0" index="0" speed="11.87" length="19.68" shape="1413.60,808.00 1406.47,805.88 1399.47,800.53 1397.38,797.80"/>
    </edge>
    <edge id=":J15_4" function="internal">
        <lane id=":J15_4_0" index="0" speed="13.89" length="27.20" shape="1413.60,804.80 1386.40,804.80"/>
    </edge>
    <edge id=":J15_5" function="internal">
        <lane id=":J15_5_0" index="0" speed="9.26" length="5.01" shape="1413.60,801.60 1408.64,802.31"/>
    </edge>
    <edge id=":J15_13" function="internal">
        <lane id=":J15_13_0" index="0" speed="11.87" length="12.81" shape="1397.38,797.80 1394.12,793.52 1392.00,786.40"/>
    </edge>
    <edge id=":J15_14" function="internal">
        <lane id=":J15_14_0" index="0" speed="9.26" length="14.34" shape="1408.64,802.31 1408.35,802.35 1404.60,804.60 1402.35,808.35 1401.60,813.60"/>
    </edge>
    <edge id=":J15_6" function="internal">
        <lane id=":J15_6_0" index="0" speed="6.51" length="9.03" shape="1408.00,786.40 1408.35,788.85 1409.40,790.60 1411.15,791.65 1413.60,792.00"/>
    </edge>
    <edge id=":J15_7" function="internal">
        <lane id=":J15_7_0" index="0" speed="13.89" length="27.20" shape="1404.80,786.40 1404.80,813.60"/>
    </edge>
    <edge id=":J15_8" function="internal">
        <lane id=":J15_8_0" index="0" speed="10.36" length="12.07" shape="1401.60,786.40 1400.65,793.05 1397.90,797.64"/>
    </edge>
    <edge id=":J15_15" function="internal">
        <lane id=":J15_15_0" index="0" speed="10.36" length="12.44" shape="1397.90,797.64 1397.80,797.80 1393.05,800.65 1386.40,801.60"/>
    </edge>
    <edge id=":J15_9" function="internal">
        <lane id=":J15_9_0" index="0" speed="11.87" length="19.68" shape="1386.40,792.00 1393.53,794.12 1400.53,799.47 1402.62,802.20"/>
    </edge>
    <edge id=":J15_10" function="internal">
        <lane id=":J15_10_0" index="0" speed="13.89" length="27.20" shape="1386.40,795.20 1413.60,795.20"/>
    </edge>
    <edge id=":J15_11" function="internal">
        <lane id=":J15_11_0" index="0" speed="9.26" length="5.01" shape="1386.40,798.40 1391.36,797.69"/>
    </edge>
    <edge id=":J15_16" function="internal">
        <lane id=":J15_16_0" index="0" speed="11.87" length="12.81" shape="1402.62,802.20 1405.88,806.48 1408.00,813.60"/>
    </edge>
    <edge id=":J15_17" function="internal">
        <lane id=":J15_17_0" index="0" speed="9.26" length="14.34" shape="1391.36,797.69 1391.65,797.65 1395.40,795.40 1397.65,791.65 1398.40,786.40"/>
    </edge>
    <edge id=":J16_0" function="internal">
        <lane id=":J16_0_0" index="0" speed="6.51" length="9.03" shape="192.00,513.60 191.65,511.15 190.60,509.40 188.85,508.35 186.40,508.00"/>
    </edge>
    <edge id=":J16_1" function="internal">
        <lane id=":J16_1_0" index="0" speed="13.89" length="27.20" shape="195.20,513.60 195.20,486.40"/>
    </edge>
    <edge id=":J16_2" function="internal">
        <lane id=":J16_2_0" index="0" speed="10.36" length="12.07" shape="198.40,513.60 199.35,506.95 202.10,502.36"/>
    </edge>
    <edge id=":J16_12" function="internal">
        <lane id=":J16_12_0" index="0" speed="10.36" length="12.44" shape="202.10,502.36 202.20,502.20 206.95,499.35 213.60,498.40"/>
    </edge>
    <edge id=":J16_3" function="internal">
        <lane id=":J16_3_0" index="0" speed="11.87" length="19.68" shape="213.60,508.00 206.47,505.88 199.47,500.53 197.38,497.80"/>
    </edge>
    <edge id=":J16_4" function="internal">
        <lane id=":J16_4_0" index="0" speed="13.89" length="27.20" shape="213.60,504.80 186.40,504.80"/>
    </edge>
    <edge id=":J16_5" function="internal">
        <lane id=":J16_5_0" index="0" speed="9.26" length="5.01" shape="213.60,501.60 208.64,502.31"/>
    </edge>
    <edge id=":J16_13" function="internal">
        <lane id=":J16_13_0" index="0" speed="11.87" length="12.81" shape="197.38,497.80 194.12,493.52 192.00,486.40"/>
    </edge>
    <edge id=":J16_14" function="internal">
        <lane id=":J16_14_0" index="0" speed="9.26" length="14.34" shape="208.64,502.31 208.35,502.35 204.60,504.60 202.35,508.35 201.60,513.60"/>
    </edge>
    <edge id=":J16_6" function="internal">
        <lane id=":J16_6_0" index="0" speed="6.51" length="9.03" shape="208.00,486.40 208.35,488.85 209.40,490.60 211.15,491.65 213.60,492.00"/>
    </edge>
    <edge id=":J16_7" function="internal">
        <lane id=":J16_7_0" index="0" speed="13.89" length="27.20" shape="204.80,486.40 204.80,513.60"/>
    </edge>
    <edge id=":J16_8" function="internal">
        <lane id=":J16_8_0" index="0" speed="10.36" length="12.07" shape="201.60,486.40 200.65,493.05 197.90,497.64"/>
    </edge>
    <edge id=":J16_15" function="internal">
        <lane id=":J16_15_0" index="0" speed="10.36" length="12.44" shape="197.90,497.64 197.80,497.80 193.05,500.65 186.40,501.60"/>
    </edge>
    <edge id=":J16_9" function="internal">
        <lane id=":J16_9_0" index="0" speed="11.87" length="19.68" shape="186.40,492.00 193.52,494.12 200.53,499.47 202.62,502.20"/>
    </edge>
    <edge id=":J16_10" function="internal">
        <lane id=":J16_10_0" index="0" speed="13.89" length="27.20" shape="186.40,495.20 213.60,495.20"/>
    </edge>
    <edge id=":J16_11" function="internal">
        <lane id=":J16_11_0" index="0" speed="9.26" length="5.01" shape="186.40,498.40 191.36,497.69"/>
    </edge>
    <edge id=":J16_16" function="internal">
        <lane id=":J16_16_0" index="0" speed="11.87" length="12.81" shape="202.62,502.20 205.88,506.48 208.00,513.60"/>
    </edge>
    <edge id=":J16_17" function="internal">
        <lane id=":J16_17_0" index="0" speed="9.26" length="14.34" shape="191.36,497.69 191.65,497.65 195.40,495.40 197.65,491.65 198.40,486.40"/>
    </edge>
    <edge id=":J17_0" function="internal">
        <lane id=":J17_0_0" index="0" speed="6.51" length="9.03" shape="492.00,513.60 491.65,511.15 490.60,509.40 488.85,508.35 486.40,508.00"/>
    </edge>
    <edge id=":J17_1" function="internal">
        <lane id=":J17_1_0" index="0" speed="13.89" length="27.20" shape="495.20,513.60 495.20,486.40"/>
    </edge>
    <edge id=":J17_2" function="internal">
        <lane id=":J17_2_0" index="0" speed="10.36" length="12.07" shape="498.40,513.60 499.35,506.95 502.10,502.36"/>
    </edge>
    <edge id=":J17_12" function="internal">
        <lane id=":J17_12_0" index="0" speed="10.36" length="12.44" shape="502.10,502.36 502.20,502.20 506.95,499.35 513.60,498.40"/>
    </edge>
    <edge id=":J17_3" function="internal">
        <lane id=":J17_3_0" index="0" speed="11.87" length="19.68" shape="513.60,508.00 506.48,505.88 499.47,500.53 497.38,497.80"/>
    </edge>
    <edge id=":J17_4" function="internal">
        <lane id=":J17_4_0" index="0" speed="13.89" length="27.20" shape="513.60,504.80 486.40,504.80"/>
    </edge>
    <edge id=":J17_5" function="internal">
        <lane id=":J17_5_0" index="0" speed="9.26" length="5.01" shape="513.60,501.60 508.64,502.31"/>
    </edge>
    <edge id=":J17_13" function="internal">
        <lane id=":J17_13_0" index="0" speed="11.87" length="12.81" shape="497.38,497.80 494.12,493.52 492.00,486.40"/>
    </edge>
    <edge id=":J17_14" function="internal">
        <lane id=":J17_14_0" index="0" speed="9.26" length="14.34" shape="508.64,502.31 508.35,502.35 504.60,504.60 502.35,508.35 501.60,513.60"/>
    </edge>
    <edge id=":J17_6" function="internal">
        <lane id=":J17_6_0" index="0" speed="6.51" length="9.03" shape="508.00,486.40 508.35,488.85 509.40,490.60 511.15,491.65 513.60,492.00"/>
    </edge>
    <edge id=":J17_7" function="internal">
        <lane id=":J17_7_0" index="0" speed="13.89" length="27.20" shape="504.80,486.40 504.80,513.60"/>
    </edge>
    <edge id=":J17_8" function="internal">
        <lane id=":J17_8_0" index="0" speed="10.36" length="12.07" shape="501.60,486.40 500.65,493.05 497.90,497.64"/>
    </edge>
    <edge id=":J17_15" function="internal">
        <lane id=":J17_15_0" index="0" speed="10.36" length="12.44" shape="497.90,497.64 497.80,497.80 493.05,500.65 486.40,501.60"/>
    </edge>
    <edge id=":J17_9" function="internal">