<?xml version="1.0" encoding="UTF-8"?>
<connections xmlns:xsi="http://www.w3.org/2001/XMLSchema-instance" xsi:noNamespaceSchemaLocation="http://sumo.dlr.de/xsd/connections_file.xsd">

    <!-- J1 -->
    <connection from="BN_0" to="-BW_0" fromLane="0" toLane="0"/>
    <connection from="BN_0" to="V_0_0" fromLane="1" toLane="1"/>
    <connection from="BN_0" to="H_0_0" fromLane="2" toLane="2"/>
    <connection from="-V_0_0" to="H_0_0" fromLane="0" toLane="0"/>
    <connection from="-V_0_0" to="-BN_0" fromLane="1" toLane="1"/>
    <connection from="-V_0_0" to="-BW_0" fromLane="2" toLane="2"/>
    <connection from="BW_0" to="-BN_0" fromLane="0" toLane="0"/>
    <connection from="BW_0" to="H_0_0" fromLane="1" toLane="1"/>
    <connection from="BW_0" to="V_0_0" fromLane="2" toLane="2"/>
    <connection from="-H_0_0" to="V_0_0" fromLane="0" toLane="0"/>
    <connection from="-H_0_0" to="-BW_0" fromLane="1" toLane="1"/>
    <connection from="-H_0_0" to="-BN_0" fromLane="2" toLane="2"/>

    <!-- J2 -->
    <connection from="BN_1" to="-H_0_0" fromLane="0" toLane="0"/>
    <connection from="BN_1" to="V_0_1" fromLane="1" toLane="1"/>
    <connection from="BN_1" to="H_0_1" fromLane="2" toLane="2"/>
    <connection from="-V_0_1" to="H_0_1" fromLane="0" toLane="0"/>
    <connection from="-V_0_1" to="-BN_1" fromLane="1" toLane="1"/>
    <connection from="-V_0_1" to="-H_0_0" fromLane="2" toLane="2"/>
    <connection from="H_0_0" to="-BN_1" fromLane="0" toLane="0"/>
    <connection from="H_0_0" to="H_0_1" fromLane="1" toLane="1"/>
    <connection from="H_0_0" to="V_0_1" fromLane="2" toLane="2"/>
    <connection from="-H_0_1" to="V_0_1" fromLane="0" toLane="0"/>
    <connection from="-H_0_1" to="-H_0_0" fromLane="1" toLane="1"/>
    <connection from="-H_0_1" to="-BN_1" fromLane="2" toLane="2"/>

    <!-- J3 -->
    <connection from="BN_2" to="-H_0_1" fromLane="0" toLane="0"/>
    <connection from="BN_2" to="V_0_2" fromLane="1" toLane="1"/>
    <connection from="BN_2" to="H_0_2" fromLane="2" toLane="2"/>
    <connection from="-V_0_2" to="H_0_2" fromLane="0" toLane="0"/>
    <connection from="-V_0_2" to="-BN_2" fromLane="1" toLane="1"/>
    <connection from="-V_0_2" to="-H_0_1" fromLane="2" toLane="2"/>
    <connection from="H_0_1" to="-BN_2" fromLane="0" toLane="0"/>
    <connection from="H_0_1" to="H_0_2" fromLane="1" toLane="1"/>
    <connection from="H_0_1" to="V_0_2" fromLane="2" toLane="2"/>
    <connection from="-H_0_2" to="V_0_2" fromLane="0" toLane="0"/>
    <connection from="-H_0_2" to="-H_0_1" fromLane="1" toLane="1"/>
    <connection from="-H_0_2" to="-BN_2" fromLane="2" toLane="2"/>

    <!-- J4 -->
    <connection from="BN_3" to="-H_0_2" fromLane="0" toLane="0"/>
    <connection from="BN_3" to="V_0_3" fromLane="1" toLane="1"/>
    <connection from="BN_3" to="H_0_3" fromLane="2" toLane="2"/>
    <connection from="-V_0_3" to="H_0_3" fromLane="0" toLane="0"/>
    <connection from="-V_0_3" to="-BN_3" fromLane="1" toLane="1"/>
    <connection from="-V_0_3" to="-H_0_2" fromLane="2" toLane="2"/>
    <connection from="H_0_2" to="-BN_3" fromLane="0" toLane="0"/>
    <connection from="H_0_2" to="H_0_3" fromLane="1" toLane="1"/>
    <connection from="H_0_2" to="V_0_3" fromLane="2" toLane="2"/>
    <connection from="-H_0_3" to="V_0_3" fromLane="0" toLane="0"/>
    <connection from="-H_0_3" to="-H_0_2" fromLane="1" toLane="1"/>
    <connection from="-H_0_3" to="-BN_3" fromLane="2" toLane="2"/>

    <!-- J5 -->
    <connection from="BN_4" to="-H_0_3" fromLane="0" toLane="0"/>
    <connection from="BN_4" to="V_0_4" fromLane="1" toLane="1"/>
    <connection from="BN_4" to="BE_0" fromLane="2" toLane="2"/>
    <connection from="-V_0_4" to="BE_0" fromLane="0" toLane="0"/>
    <connection from="-V_0_4" to="-BN_4" fromLane="1" toLane="1"/>
    <connection from="-V_0_4" to="-H_0_3" fromLane="2" toLane="2"/>
    <connection from="H_0_3" to="-BN_4" fromLane="0" toLane="0"/>
    <connection from="H_0_3" to="BE_0" fromLane="1" toLane="1"/>
    <connection from="H_0_3" to="V_0_4" fromLane="2" toLane="2"/>
    <connection from="-BE_0" to="V_0_4" fromLane="0" toLane="0"/>
    <connection from="-BE_0" to="-H_0_3" fromLane="1" toLane="1"/>
    <connection from="-BE_0" to="-BN_4" fromLane="2" toLane="2"/>

    <!-- J6 -->
    <connection from="V_0_0" to="-BW_1" fromLane="0" toLane="0"/>
    <connection from="V_0_0" to="V_1_0" fromLane="1" toLane="1"/>
    <connection from="V_0_0" to="H_1_0" fromLane="2" toLane="2"/>
    <connection from="-V_1_0" to="H_1_0" fromLane="0" toLane="0"/>
    <connection from="-V_1_0" to="-V_0_0" fromLane="1" toLane="1"/>
    <connection from="-V_1_0" to="-BW_1" fromLane="2" toLane="2"/>
    <connection from="BW_1" to="-V_0_0" fromLane="0" toLane="0"/>
    <connection from="BW_1" to="H_1_0" fromLane="1" toLane="1"/>
    <connection from="BW_1" to="V_1_0" fromLane="2" toLane="2"/>
    <connection from="-H_1_0" to="V_1_0" fromLane="0" toLane="0"/>
    <connection from="-H_1_0" to="-BW_1" fromLane="1" toLane="1"/>
    <connection from="-H_1_0" to="-V_0_0" fromLane="2" toLane="2"/>

    <!-- J7 -->
    <connection from="V_0_1" to="-H_1_0" fromLane="0" toLane="0"/>
    <connection from="V_0_1" to="V_1_1" fromLane="1" toLane="1"/>
    <connection from="V_0_1" to="H_1_1" fromLane="2" toLane="2"/>
    <connection from="-V_1_1" to="H_1_1" fromLane="0" toLane="0"/>
    <connection from="-V_1_1" to="-V_0_1" fromLane="1" toLane="1"/>
    <connection from="-V_1_1" to="-H_1_0" fromLane="2" toLane="2"/>
    <connection from="H_1_0" to="-V_0_1" fromLane="0" toLane="0"/>
    <connection from="H_1_0" to="H_1_1" fromLane="1" toLane="1"/>
    <connection from="H_1_0" to="V_1_1" fromLane="2" toLane="2"/>
    <connection from="-H_1_1" to="V_1_1" fromLane="0" toLane="0"/>
    <connection from="-H_1_1" to="-H_1_0" fromLane="1" toLane="1"/>
    <connection from="-H_1_1" to="-V_0_1" fromLane="2" toLane="2"/>

    <!-- J8 -->
    <connection from="V_0_2" to="-H_1_1" fromLane="0" toLane="0"/>
    <connection from="V_0_2" to="V_1_2" fromLane="1" toLane="1"/>
    <connection from="V_0_2" to="H_1_2" fromLane="2" toLane="2"/>
    <connection from="-V_1_2" to="H_1_2" fromLane="0" toLane="0"/>
    <connection from="-V_1_2" to="-V_0_2" fromLane="1" toLane="1"/>
    <connection from="-V_1_2" to="-H_1_1" fromLane="2" toLane="2"/>
    <connection from="H_1_1" to="-V_0_2" fromLane="0" toLane="0"/>
    <connection from="H_1_1" to="H_1_2" fromLane="1" toLane="1"/>
    <connection from="H_1_1" to="V_1_2" fromLane="2" toLane="2"/>
    <connection from="-H_1_2" to="V_1_2" fromLane="0" toLane="0"/>
    <connection from="-H_1_2" to="-H_1_1" fromLane="1" toLane="1"/>
    <connection from="-H_1_2" to="-V_0_2" fromLane="2" toLane="2"/>

    <!-- J9 -->
    <connection from="V_0_3" to="-H_1_2" fromLane="0" toLane="0"/>
    <connection from="V_0_3" to="V_1_3" fromLane="1" toLane="1"/>
    <connection from="V_0_3" to="H_1_3" fromLane="2" toLane="2"/>
    <connection from="-V_1_3" to="H_1_3" fromLane="0" toLane="0"/>
    <connection from="-V_1_3" to="-V_0_3" fromLane="1" toLane="1"/>
    <connection from="-V_1_3" to="-H_1_2" fromLane="2" toLane="2"/>
    <connection from="H_1_2" to="-V_0_3" fromLane="0" toLane="0"/>
    <connection from="H_1_2" to="H_1_3" fromLane="1" toLane="1"/>
    <connection from="H_1_2" to="V_1_3" fromLane="2" toLane="2"/>
    <connection from="-H_1_3" to="V_1_3" fromLane="0" toLane="0"/>
    <connection from="-H_1_3" to="-H_1_2" fromLane="1" toLane="1"/>
    <connection from="-H_1_3" to="-V_0_3" fromLane="2" toLane="2"/>

    <!-- J10 -->
    <connection from="V_0_4" to="-H_1_3" fromLane="0" toLane="0"/>
    <connection from="V_0_4" to="V_1_4" fromLane="1" toLane="1"/>
    <connection from="V_0_4" to="BE_1" fromLane="2" toLane="2"/>
    <connection from="-V_1_4" to="BE_1" fromLane="0" toLane="0"/>
    <connection from="-V_1_4" to="-V_0_4" fromLane="1" toLane="1"/>
    <connection from="-V_1_4" to="-H_1_3" fromLane="2" toLane="2"/>
    <connection from="H_1_3" to="-V_0_4" fromLane="0" toLane="0"/>
    <connection from="H_1_3" to="BE_1" fromLane="1" toLane="1"/>
    <connection from="H_1_3" to="V_1_4" fromLane="2" toLane="2"/>
    <connection from="-BE_1" to="V_1_4" fromLane="0" toLane="0"/>
    <connection from="-BE_1" to="-H_1_3" fromLane="1" toLane="1"/>
    <connection from="-BE_1" to="-V_0_4" fromLane="2" toLane="2"/>

    <!-- J11 -->
    <connection from="V_1_0" to="-BW_2" fromLane="0" toLane="0"/>
    <connection from="V_1_0" to="V_2_0" fromLane="1" toLane="1"/>
    <connection from="V_1_0" to="H_2_0" fromLane="2" toLane="2"/>
    <connection from="-V_2_0" to="H_2_0" fromLane="0" toLane="0"/>
    <connection from="-V_2_0" to="-V_1_0" fromLane="1" toLane="1"/>
    <connection from="-V_2_0" to="-BW_2" fromLane="2" toLane="2"/>
    <connection from="BW_2" to="-V_1_0" fromLane="0" toLane="0"/>
    <connection from="BW_2" to="H_2_0" fromLane="1" toLane="1"/>
    <connection from="BW_2" to="V_2_0" fromLane="2" toLane="2"/>
    <connection from="-H_2_0" to="V_2_0" fromLane="0" toLane="0"/>
    <connection from="-H_2_0" to="-BW_2" fromLane="1" toLane="1"/>
    <connection from="-H_2_0" to="-V_1_0" fromLane="2" toLane="2"/>

    <!-- J12 -->
    <connection from="V_1_1" to="-H_2_0" fromLane="0" toLane="0"/>
    <connection from="V_1_1" to="V_2_1" fromLane="1" toLane="1"/>
    <connection from="V_1_1" to="H_2_1" fromLane="2" toLane="2"/>
    <connection from="-V_2_1" to="H_2_1" fromLane="0" toLane="0"/>
    <connection from="-V_2_1" to="-V_1_1" fromLane="1" toLane="1"/>
    <connection from="-V_2_1" to="-H_2_0" fromLane="2" toLane="2"/>
    <connection from="H_2_0" to="-V_1_1" fromLane="0" toLane="0"/>
    <connection from="H_2_0" to="H_2_1" fromLane="1" toLane="1"/>
    <connection from="H_2_0" to="V_2_1" fromLane="2" toLane="2"/>
    <connection from="-H_2_1" to="V_2_1" fromLane="0" toLane="0"/>
    <connection from="-H_2_1" to="-H_2_0" fromLane="1" toLane="1"/>
    <connection from="-H_2_1" to="-V_1_1" fromLane="2" toLane="2"/>

    <!-- J13 -->
    <connection from="V_1_2" to="-H_2_1" fromLane="0" toLane="0"/>
    <connection from="V_1_2" to="V_2_2" fromLane="1" toLane="1"/>
    <connection from="V_1_2" to="H_2_2" fromLane="2" toLane="2"/>
    <connection from="-V_2_2" to="H_2_2" fromLane="0" toLane="0"/>
    <connection from="-V_2_2" to="-V_1_2" fromLane="1" toLane="1"/>
    <connection from="-V_2_2" to="-H_2_1" fromLane="2" toLane="2"/>
    <connection from="H_2_1" to="-V_1_2" fromLane="0" toLane="0"/>
    <connection from="H_2_1" to="H_2_2" fromLane="1" toLane="1"/>
    <connection from="H_2_1" to="V_2_2" fromLane="2" toLane="2"/>
    <connection from="-H_2_2" to="V_2_2" fromLane="0" toLane="0"/>
    <connection from="-H_2_2" to="-H_2_1" fromLane="1" toLane="1"/>
    <connection from="-H_2_2" to="-V_1_2" fromLane="2" toLane="2"/>

    <!-- J14 -->
    <connection from="V_1_3" to="-H_2_2" fromLane="0" toLane="0"/>
    <connection from="V_1_3" to="V_2_3" fromLane="1" toLane="1"/>
    <connection from="V_1_3" to="H_2_3" fromLane="2" toLane="2"/>
    <connection from="-V_2_3" to="H_2_3" fromLane="0" toLane="0"/>
    <connection from="-V_2_3" to="-V_1_3" fromLane="1" toLane="1"/>
    <connection from="-V_2_3" to="-H_2_2" fromLane="2" toLane="2"/>
    <connection from="H_2_2" to="-V_1_3" fromLane="0" toLane="0"/>
    <connection from="H_2_2" to="H_2_3" fromLane="1" toLane="1"/>
    <connection from="H_2_2" to="V_2_3" fromLane="2" toLane="2"/>
    <connection from="-H_2_3" to="V_2_3" fromLane="0" toLane="0"/>
    <connection from="-H_2_3" to="-H_2_2" fromLane="1" toLane="1"/>
    <connection from="-H_2_3" to="-V_1_3" fromLane="2" toLane="2"/>

    <!-- J15 -->
    <connection from="V_1_4" to="-H_2_3" fromLane="0" toLane="0"/>
    <connection from="V_1_4" to="V_2_4" fromLane="1" toLane="1"/>
    <connection from="V_1_4" to="BE_2" fromLane="2" toLane="2"/>
    <connection from="-V_2_4" to="BE_2" fromLane="0" toLane="0"/>
    <connection from="-V_2_4" to="-V_1_4" fromLane="1" toLane="1"/>
    <connection from="-V_2_4" to="-H_2_3" fromLane="2" toLane="2"/>
    <connection from="H_2_3" to="-V_1_4" fromLane="0" toLane="0"/>
    <connection from="H_2_3" to="BE_2" fromLane="1" toLane="1"/>
    <connection from="H_2_3" to="V_2_4" fromLane="2" toLane="2"/>
    <connection from="-BE_2" to="V_2_4" fromLane="0" toLane="0"/>
    <connection from="-BE_2" to="-H_2_3" fromLane="1" toLane="1"/>
    <connection from="-BE_2" to="-V_1_4" fromLane="2" toLane="2"/>

    <!-- J16 -->
    <connection from="V_2_0" to="-BW_3" fromLane="0" toLane="0"/>
    <connection from="V_2_0" to="V_3_0" fromLane="1" toLane="1"/>
    <connection from="V_2_0" to="H_3_0" fromLane="2" toLane="2"/>
    <connection from="-V_3_0" to="H_3_0" fromLane="0" toLane="0"/>
    <connection from="-V_3_0" to="-V_2_0" fromLane="1" toLane="1"/>
    <connection from="-V_3_0" to="-BW_3" fromLane="2" toLane="2"/>
    <connection from="BW_3" to="-V_2_0" fromLane="0" toLane="0"/>
    <connection from="BW_3" to="H_3_0" fromLane="1" toLane="1"/>
    <connection from="BW_3" to="V_3_0" fromLane="2" toLane="2"/>
    <connection from="-H_3_0" to="V_3_0" fromLane="0" toLane="0"/>
    <connection from="-H_3_0" to="-BW_3" fromLane="1" toLane="1"/>
    <connection from="-H_3_0" to="-V_2_0" fromLane="2" toLane="2"/>

    <!-- J17 -->
    <connection from="V_2_1" to="-H_3_0" fromLane="0" toLane="0"/>
    <connection from="V_2_1" to="V_3_1" fromLane="1" toLane="1"/>
    <connection from="V_2_1" to="H_3_1" fromLane="2" toLane="2"/>
    <connection from="-V_3_1" to="H_3_1" fromLane="0" toLane="0"/>
    <connection from="-V_3_1" to="-V_2_1" fromLane="1" toLane="1"/>
    <connection from="-V_3_1" to="-H_3_0" fromLane="2" toLane="2"/>
    <connection from="H_3_0" to="-V_2_1" fromLane="0" toLane="0"/>
    <connection from="H_3_0" to="H_3_1" fromLane="1" toLane="1"/>
    <connection from="H_3_0" to="V_3_1" fromLane="2" toLane="2"/>
    <connection from="-H_3_1" to="V_3_1" fromLane="0" toLane="0"/>
    <connection from="-H_3_1" to="-H_3_0" fromLane="1" toLane="1"/>
    <connection from="-H_3_1" to="-V_2_1" fromLane="2" toLane="2"/>

    <!-- J18 -->
    <connection from="V_2_2" to="-H_3_1" fromLane="0" toLane="0"/>
    <connection from="V_2_2" to="V_3_2" fromLane="1" toLane="1"/>
    <connection from="V_2_2" to="H_3_2" fromLane="2" toLane="2"/>
    <connection from="-V_3_2" to="H_3_2" fromLane="0" toLane="0"/>
    <connection from="-V_3_2" to="-V_2_2" fromLane="1" toLane="1"/>
    <connection from="-V_3_2" to="-H_3_1" fromLane="2" toLane="2"/>
    <connection from="H_3_1" to="-V_2_2" fromLane="0" toLane="0"/>
    <connection from="H_3_1" to="H_3_2" fromLane="1" toLane="1"/>
    <connection from="H_3_1" to="V_3_2" fromLane="2" toLane="2"/>
    <connection from="-H_3_2" to="V_3_2" fromLane="0" toLane="0"/>
    <connection from="-H_3_2" to="-H_3_1" fromLane="1" toLane="1"/>
    <connection from="-H_3_2" to="-V_2_2" fromLane="2" toLane="2"/>

    <!-- J19 -->
    <connection from="V_2_3" to="-H_3_2" fromLane="0" toLane="0"/>
    <connection from="V_2_3" to="V_3_3" fromLane="1" toLane="1"/>
    <connection from="V_2_3" to="H_3_3" fromLane="2" toLane="2"/>
    <connection from="-V_3_3" to="H_3_3" fromLane="0" toLane="0"/>
    <connection from="-V_3_3" to="-V_2_3" fromLane="1" toLane="1"/>
    <connection from="-V_3_3" to="-H_3_2" fromLane="2" toLane="2"/>
    <connection from="H_3_2" to="-V_2_3" fromLane="0" toLane="0"/>
    <connection from="H_3_2" to="H_3_3" fromLane="1" toLane="1"/>
    <connection from="H_3_2" to="V_3_3" fromLane="2" toLane="2"/>
    <connection from="-H_3_3" to="V_3_3" fromLane="0" toLane="0"/>
    <connection from="-H_3_3" to="-H_3_2" fromLane="1" toLane="1"/>
    <connection from="-H_3_3" to="-V_2_3" fromLane="2" toLane="2"/>

    <!-- J20 -->
    <connection from="V_2_4" to="-H_3_3" fromLane="0" toLane="0"/>
    <connection from="V_2_4" to="V_3_4" fromLane="1" toLane="1"/>
    <connection from="V_2_4" to="BE_3" fromLane="2" toLane="2"/>
    <connection from="-V_3_4" to="BE_3" fromLane="0" toLane="0"/>
    <connection from="-V_3_4" to="-V_2_4" fromLane="1" toLane="1"/>
    <connection from="-V_3_4" to="-H_3_3" fromLane="2" toLane="2"/>
    <connection from="H_3_3" to="-V_2_4" fromLane="0" toLane="0"/>
    <connection from="H_3_3" to="BE_3" fromLane="1" toLane="1"/>
    <connection from="H_3_3" to="V_3_4" fromLane="2" toLane="2"/>
    <connection from="-BE_3" to="V_3_4" fromLane="0" toLane="0"/>
    <connection from="-BE_3" to="-H_3_3" fromLane="1" toLane="1"/>
    <connection from="-BE_3" to="-V_2_4" fromLane="2" toLane="2"/>

    <!-- J21 -->
    <connection from="V_3_0" to="-BW_4" fromLane="0" toLane="0"/>
    <connection from="V_3_0" to="BS_0" fromLane="1" toLane="1"/>
    <connection from="V_3_0" to="H_4_0" fromLane="2" toLane="2"/>
    <connection from="-BS_0" to="H_4_0" fromLane="0" toLane="0"/>
    <connection from="-BS_0" to="-V_3_0" fromLane="1" toLane="1"/>
    <connection from="-BS_0" to="-BW_4" fromLane="2" toLane="2"/>
    <connection from="BW_4" to="-V_3_0" fromLane="0" toLane="0"/>
    <connection from="BW_4" to="H_4_0" fromLane="1" toLane="1"/>
    <connection from="BW_4" to="BS_0" fromLane="2" toLane="2"/>
    <connection from="-H_4_0" to="BS_0" fromLane="0" toLane="0"/>
    <connection from="-H_4_0" to="-BW_4" fromLane="1" toLane="1"/>
    <connection from="-H_4_0" to="-V_3_0" fromLane="2" toLane="2"/>

    <!-- J22 -->
    <connection from="V_3_1" to="-H_4_0" fromLane="0" toLane="0"/>
    <connection from="V_3_1" to="BS_1" fromLane="1" toLane="1"/>
    <connection from="V_3_1" to="H_4_1" fromLane="2" toLane="2"/>
    <connection from="-BS_1" to="H_4_1" fromLane="0" toLane="0"/>
    <connection from="-BS_1" to="-V_3_1" fromLane="1" toLane="1"/>
    <connection from="-BS_1" to="-H_4_0" fromLane="2" toLane="2"/>
    <connection from="H_4_0" to="-V_3_1" fromLane="0" toLane="0"/>
    <connection from="H_4_0" to="H_4_1" fromLane="1" toLane="1"/>
    <connection from="H_4_0" to="BS_1" fromLane="2" toLane="2"/>
    <connection from="-H_4_1" to="BS_1" fromLane="0" toLane="0"/>
    <connection from="-H_4_1" to="-H_4_0" fromLane="1" toLane="1"/>
    <connection from="-H_4_1" to="-V_3_1" fromLane="2" toLane="2"/>

    <!-- J23 -->
    <connection from="V_3_2" to="-H_4_1" fromLane="0" toLane="0"/>
    <connection from="V_3_2" to="BS_2" fromLane="1" toLane="1"/>
    <connection from="V_3_2" to="H_4_2" fromLane="2" toLane="2"/>
    <connection from="-BS_2" to="H_4_2" fromLane="0" toLane="0"/>
    <connection from="-BS_2" to="-V_3_2" fromLane="1" toLane="1"/>
    <connection from="-BS_2" to="-H_4_1" fromLane="2" toLane="2"/>
    <connection from="H_4_1" to="-V_3_2" fromLane="0" toLane="0"/>
    <connection from="H_4_1" to="H_4_2" fromLane="1" toLane="1"/>
    <connection from="H_4_1" to="BS_2" fromLane="2" toLane="2"/>
    <connection from="-H_4_2" to="BS_2" fromLane="0" toLane="0"/>
    <connection from="-H_4_2" to="-H_4_1" fromLane="1" toLane="1"/>
    <connection from="-H_4_2" to="-V_3_2" fromLane="2" toLane="2"/>

    <!-- J24 -->
    <connection from="V_3_3" to="-H_4_2" fromLane="0" toLane="0"/>
    <connection from="V_3_3" to="BS_3" fromLane="1" toLane="1"/>
    <connection from="V_3_3" to="H_4_3" fromLane="2" toLane="2"/>
    <connection from="-BS_3" to="H_4_3" fromLane="0" toLane="0"/>
    <connection from="-BS_3" to="-V_3_3" fromLane="1" toLane="1"/>
    <connection from="-BS_3" to="-H_4_2" fromLane="2" toLane="2"/>
    <connection from="H_4_2" to="-V_3_3" fromLane="0" toLane="0"/>
    <connection from="H_4_2" to="H_4_3" fromLane="1" toLane="1"/>
    <connection from="H_4_2" to="BS_3" fromLane="2" toLane="2"/>
    <connection from="-H_4_3" to="BS_3" fromLane="0" toLane="0"/>
    <connection from="-H_4_3" to="-H_4_2" fromLane="1" toLane="1"/>
    <connection from="-H_4_3" to="-V_3_3" fromLane="2" toLane="2"/>

    <!-- J25 -->
    <connection from="V_3_4" to="-H_4_3" fromLane="0" toLane="0"/>
    <connection from="V_3_4" to="BS_4" fromLane="1" toLane="1"/>
    <connection from="V_3_4" to="BE_4" fromLane="2" toLane="2"/>
    <connection from="-BS_4" to="BE_4" fromLane="0" toLane="0"/>
    <connection from="-BS_4" to="-V_3_4" fromLane="1" toLane="1"/>
    <connection from="-BS_4" to="-H_4_3" fromLane="2" toLane="2"/>
    <connection from="H_4_3" to="-V_3_4" fromLane="0" toLane="0"/>
    <connection from="H_4_3" to="BE_4" fromLane="1" toLane="1"/>
    <connection from="H_4_3" to="BS_4" fromLane="2" toLane="2"/>
    <connection from="-BE_4" to="BS_4" fromLane="0" toLane="0"/>
    <connection from="-BE_4" to="-H_4_3" fromLane="1" toLane="1"/>
    <connection from="-BE_4" to="-V_3_4" fromLane="2" toLane="2"/>

</connections>
