<?xml version="1.0" encoding="UTF-8"?>
<sumoConfiguration xmlns:xsi="http://www.w3.org/2001/XMLSchema-instance"
    xsi:noNamespaceSchemaLocation="http://sumo.dlr.de/xsd/sumoConfiguration.xsd">
    <input>
        <net-file value="5x5-grid.net.xml"/>
        <route-files value="5x5-grid.rou.xml"/>
        <additional-files value="5x5-grid.add.xml,5x5-grid.ttl.xml"/>
    </input>
</sumoConfiguration>
