<?xml version="1.0" encoding="UTF-8"?>
<routes xmlns:xsi="http://www.w3.org/2001/XMLSchema-instance" xsi:noNamespaceSchemaLocation="http://sumo.dlr.de/xsd/routes_file.xsd">

    <vType id="car" length="5.00" minGap="2.50" maxSpeed="13.90" carFollowModel="IDM" accel="3.0" decel="6.0"/>

    <!-- Low demand (0-600s) -->
    <flow id="low_NS_0" type="car" begin="0" end="600" from="BN_0" to="BS_0" period="40"/>
    <flow id="low_NS_1" type="car" begin="0" end="600" from="BN_1" to="BS_1" period="40"/>
    <flow id="low_NS_2" type="car" begin="0" end="600" from="BN_2" to="BS_2" period="40"/>
    <flow id="low_NS_3" type="car" begin="0" end="600" from="BN_3" to="BS_3" period="40"/>
    <flow id="low_NS_4" type="car" begin="0" end="600" from="BN_4" to="BS_4" period="40"/>
    <flow id="low_WE_0" type="car" begin="0" end="600" from="BW_0" to="BE_0" period="40"/>
    <flow id="low_WE_1" type="car" begin="0" end="600" from="BW_1" to="BE_1" period="40"/>
    <flow id="low_WE_2" type="car" begin="0" end="600" from="BW_2" to="BE_2" period="40"/>
    <flow id="low_WE_3" type="car" begin="0" end="600" from="BW_3" to="BE_3" period="40"/>
    <flow id="low_WE_4" type="car" begin="0" end="600" from="BW_4" to="BE_4" period="40"/>

    <!-- Peak demand (600-2400s) -->
    <flow id="peak_NS_0" type="car" begin="600" end="2400" from="BN_0" to="BS_0" period="10"/>
    <flow id="peak_SN_0" type="car" begin="600" end="2400" from="-BS_0" to="-BN_0" period="12"/>
    <flow id="peak_NS_1" type="car" begin="600" end="2400" from="BN_1" to="BS_1" period="10"/>
    <flow id="peak_SN_1" type="car" begin="600" end="2400" from="-BS_1" to="-BN_1" period="12"/>
    <flow id="peak_NS_2" type="car" begin="600" end="2400" from="BN_2" to="BS_2" period="10"/>
    <flow id="peak_SN_2" type="car" begin="600" end="2400" from="-BS_2" to="-BN_2" period="12"/>
    <flow id="peak_NS_3" type="car" begin="600" end="2400" from="BN_3" to="BS_3" period="10"/>
    <flow id="peak_SN_3" type="car" begin="600" end="2400" from="-BS_3" to="-BN_3" period="12"/>
    <flow id="peak_NS_4" type="car" begin="600" end="2400" from="BN_4" to="BS_4" period="10"/>
    <flow id="peak_SN_4" type="car" begin="600" end="2400" from="-BS_4" to="-BN_4" period="12"/>
    <flow id="peak_WE_0" type="car" begin="600" end="2400" from="BW_0" to="BE_0" period="10"/>
    <flow id="peak_EW_0" type="car" begin="600" end="2400" from="-BE_0" to="-BW_0" period="12"/>
    <flow id="peak_WE_1" type="car" begin="600" end="2400" from="BW_1" to="BE_1" period="10"/>
    <flow id="peak_EW_1" type="car" begin="600" end="2400" from="-BE_1" to="-BW_1" period="12"/>
    <flow id="peak_WE_2" type="car" begin="600" end="2400" from="BW_2" to="BE_2" period="10"/>
    <flow id="peak_EW_2" type="car" begin="600" end="2400" from="-BE_2" to="-BW_2" period="12"/>
    <flow id="peak_WE_3" type="car" begin="600" end="2400" from="BW_3" to="BE_3" period="10"/>
    <flow id="peak_EW_3" type="car" begin="600" end="2400" from="-BE_3" to="-BW_3" period="12"/>
    <flow id="peak_WE_4" type="car" begin="600" end="2400" from="BW_4" to="BE_4" period="10"/>
    <flow id="peak_EW_4" type="car" begin="600" end="2400" from="-BE_4" to="-BW_4" period="12"/>
    <flow id="peak_diag_NE_0" type="car" begin="600" end="2400" from="BN_0" to="BE_2" period="15"/>
    <flow id="peak_diag_WS_0" type="car" begin="600" end="2400" from="BW_0" to="BS_2" period="15"/>
    <flow id="peak_diag_NE_1" type="car" begin="600" end="2400" from="BN_1" to="BE_3" period="15"/>
    <flow id="peak_diag_WS_1" type="car" begin="600" end="2400" from="BW_1" to="BS_3" period="15"/>
    <flow id="peak_diag_NE_2" type="car" begin="600" end="2400" from="BN_2" to="BE_4" period="15"/>
    <flow id="peak_diag_WS_2" type="car" begin="600" end="2400" from="BW_2" to="BS_4" period="15"/>
    <flow id="peak_diag_NE_3" type="car" begin="600" end="2400" from="BN_3" to="BE_0" period="15"/>
    <flow id="peak_diag_WS_3" type="car" begin="600" end="2400" from="BW_3" to="BS_0" period="15"/>
    <flow id="peak_diag_NE_4" type="car" begin="600" end="2400" from="BN_4" to="BE_1" period="15"/>
    <flow id="peak_diag_WS_4" type="car" begin="600" end="2400" from="BW_4" to="BS_1" period="15"/>

    <!-- Decline (2400-3600s) -->
    <flow id="decline_NS_0" type="car" begin="2400" end="3600" from="BN_0" to="BS_0" period="25"/>
    <flow id="decline_NS_1" type="car" begin="2400" end="3600" from="BN_1" to="BS_1" period="25"/>
    <flow id="decline_NS_2" type="car" begin="2400" end="3600" from="BN_2" to="BS_2" period="25"/>
    <flow id="decline_NS_3" type="car" begin="2400" end="3600" from="BN_3" to="BS_3" period="25"/>
    <flow id="decline_NS_4" type="car" begin="2400" end="3600" from="BN_4" to="BS_4" period="25"/>
    <flow id="decline_WE_0" type="car" begin="2400" end="3600" from="BW_0" to="BE_0" period="25"/>
    <flow id="decline_WE_1" type="car" begin="2400" end="3600" from="BW_1" to="BE_1" period="25"/>
    <flow id="decline_WE_2" type="car" begin="2400" end="3600" from="BW_2" to="BE_2" period="25"/>
    <flow id="decline_WE_3" type="car" begin="2400" end="3600" from="BW_3" to="BE_3" period="25"/>
    <flow id="decline_WE_4" type="car" begin="2400" end="3600" from="BW_4" to="BE_4" period="25"/>

</routes>
