<?xml version="1.0" encoding="UTF-8"?>
<edges xmlns:xsi="http://www.w3.org/2001/XMLSchema-instance" xsi:noNamespaceSchemaLocation="http://sumo.dlr.de/xsd/edges_file.xsd">

    <!-- Internal horizontal edges -->
    <edge id="H_0_0" from="J1" to="J2" numLanes="3" speed="13.89" priority="1"/>
    <edge id="-H_0_0" from="J2" to="J1" numLanes="3" speed="13.89" priority="1"/>
    <edge id="H_0_1" from="J2" to="J3" numLanes="3" speed="13.89" priority="1"/>
    <edge id="-H_0_1" from="J3" to="J2" numLanes="3" speed="13.89" priority="1"/>
    <edge id="H_0_2" from="J3" to="J4" numLanes="3" speed="13.89" priority="1"/>
    <edge id="-H_0_2" from="J4" to="J3" numLanes="3" speed="13.89" priority="1"/>
    <edge id="H_0_3" from="J4" to="J5" numLanes="3" speed="13.89" priority="1"/>
    <edge id="-H_0_3" from="J5" to="J4" numLanes="3" speed="13.89" priority="1"/>

    <edge id="H_1_0" from="J6" to="J7" numLanes="3" speed="13.89" priority="1"/>
    <edge id="-H_1_0" from="J7" to="J6" numLanes="3" speed="13.89" priority="1"/>
    <edge id="H_1_1" from="J7" to="J8" numLanes="3" speed="13.89" priority="1"/>
    <edge id="-H_1_1" from="J8" to="J7" numLanes="3" speed="13.89" priority="1"/>
    <edge id="H_1_2" from="J8" to="J9" numLanes="3" speed="13.89" priority="1"/>
    <edge id="-H_1_2" from="J9" to="J8" numLanes="3" speed="13.89" priority="1"/>
    <edge id="H_1_3" from="J9" to="J10" numLanes="3" speed="13.89" priority="1"/>
    <edge id="-H_1_3" from="J10" to="J9" numLanes="3" speed="13.89" priority="1"/>

    <edge id="H_2_0" from="J11" to="J12" numLanes="3" speed="13.89" priority="1"/>
    <edge id="-H_2_0" from="J12" to="J11" numLanes="3" speed="13.89" priority="1"/>
    <edge id="H_2_1" from="J12" to="J13" numLanes="3" speed="13.89" priority="1"/>
    <edge id="-H_2_1" from="J13" to="J12" numLanes="3" speed="13.89" priority="1"/>
    <edge id="H_2_2" from="J13" to="J14" numLanes="3" speed="13.89" priority="1"/>
    <edge id="-H_2_2" from="J14" to="J13" numLanes="3" speed="13.89" priority="1"/>
    <edge id="H_2_3" from="J14" to="J15" numLanes="3" speed="13.89" priority="1"/>
    <edge id="-H_2_3" from="J15" to="J14" numLanes="3" speed="13.89" priority="1"/>

    <edge id="H_3_0" from="J16" to="J17" numLanes="3" speed="13.89" priority="1"/>
    <edge id="-H_3_0" from="J17" to="J16" numLanes="3" speed="13.89" priority="1"/>
    <edge id="H_3_1" from="J17" to="J18" numLanes="3" speed="13.89" priority="1"/>
    <edge id="-H_3_1" from="J18" to="J17" numLanes="3" speed="13.89" priority="1"/>
    <edge id="H_3_2" from="J18" to="J19" numLanes="3" speed="13.89" priority="1"/>
    <edge id="-H_3_2" from="J19" to="J18" numLanes="3" speed="13.89" priority="1"/>
    <edge id="H_3_3" from="J19" to="J20" numLanes="3" speed="13.89" priority="1"/>
    <edge id="-H_3_3" from="J20" to="J19" numLanes="3" speed="13.89" priority="1"/>

    <edge id="H_4_0" from="J21" to="J22" numLanes="3" speed="13.89" priority="1"/>
    <edge id="-H_4_0" from="J22" to="J21" numLanes="3" speed="13.89" priority="1"/>
    <edge id="H_4_1" from="J22" to="J23" numLanes="3" speed="13.89" priority="1"/>
    <edge id="-H_4_1" from="J23" to="J22" numLanes="3" speed="13.89" priority="1"/>
    <edge id="H_4_2" from="J23" to="J24" numLanes="3" speed="13.89" priority="1"/>
    <edge id="-H_4_2" from="J24" to="J23" numLanes="3" speed="13.89" priority="1"/>
    <edge id="H_4_3" from="J24" to="J25" numLanes="3" speed="13.89" priority="1"/>
    <edge id="-H_4_3" from="J25" to="J24" numLanes="3" speed="13.89" priority="1"/>

    <!-- Internal vertical edges -->
    <edge id="V_0_0" from="J1" to="J6" numLanes="3" speed="13.89" priority="1"/>
    <edge id="-V_0_0" from="J6" to="J1" numLanes="3" speed="13.89" priority="1"/>
    <edge id="V_0_1" from="J2" to="J7" numLanes="3" speed="13.89" priority="1"/>
    <edge id="-V_0_1" from="J7" to="J2" numLanes="3" speed="13.89" priority="1"/>
    <edge id="V_0_2" from="J3" to="J8" numLanes="3" speed="13.89" priority="1"/>
    <edge id="-V_0_2" from="J8" to="J3" numLanes="3" speed="13.89" priority="1"/>
    <edge id="V_0_3" from="J4" to="J9" numLanes="3" speed="13.89" priority="1"/>
    <edge id="-V_0_3" from="J9" to="J4" numLanes="3" speed="13.89" priority="1"/>
    <edge id="V_0_4" from="J5" to="J10" numLanes="3" speed="13.89" priority="1"/>
    <edge id="-V_0_4" from="J10" to="J5" numLanes="3" speed="13.89" priority="1"/>

    <edge id="V_1_0" from="J6" to="J11" numLanes="3" speed="13.89" priority="1"/>
    <edge id="-V_1_0" from="J11" to="J6" numLanes="3" speed="13.89" priority="1"/>
    <edge id="V_1_1" from="J7" to="J12" numLanes="3" speed="13.89" priority="1"/>
    <edge id="-V_1_1" from="J12" to="J7" numLanes="3" speed="13.89" priority="1"/>
    <edge id="V_1_2" from="J8" to="J13" numLanes="3" speed="13.89" priority="1"/>
    <edge id="-V_1_2" from="J13" to="J8" numLanes="3" speed="13.89" priority="1"/>
    <edge id="V_1_3" from="J9" to="J14" numLanes="3" speed="13.89" priority="1"/>
    <edge id="-V_1_3" from="J14" to="J9" numLanes="3" speed="13.89" priority="1"/>
    <edge id="V_1_4" from="J10" to="J15" numLanes="3" speed="13.89" priority="1"/>
    <edge id="-V_1_4" from="J15" to="J10" numLanes="3" speed="13.89" priority="1"/>

    <edge id="V_2_0" from="J11" to="J16" numLanes="3" speed="13.89" priority="1"/>
    <edge id="-V_2_0" from="J16" to="J11" numLanes="3" speed="13.89" priority="1"/>
    <edge id="V_2_1" from="J12" to="J17" numLanes="3" speed="13.89" priority="1"/>
    <edge id="-V_2_1" from="J17" to="J12" numLanes="3" speed="13.89" priority="1"/>
    <edge id="V_2_2" from="J13" to="J18" numLanes="3" speed="13.89" priority="1"/>
    <edge id="-V_2_2" from="J18" to="J13" numLanes="3" speed="13.89" priority="1"/>
    <edge id="V_2_3" from="J14" to="J19" numLanes="3" speed="13.89" priority="1"/>
    <edge id="-V_2_3" from="J19" to="J14" numLanes="3" speed="13.89" priority="1"/>
    <edge id="V_2_4" from="J15" to="J20" numLanes="3" speed="13.89" priority="1"/>
    <edge id="-V_2_4" from="J20" to="J15" numLanes="3" speed="13.89" priority="1"/>

    <edge id="V_3_0" from="J16" to="J21" numLanes="3" speed="13.89" priority="1"/>
    <edge id="-V_3_0" from="J21" to="J16" numLanes="3" speed="13.89" priority="1"/>
    <edge id="V_3_1" from="J17" to="J22" numLanes="3" speed="13.89" priority="1"/>
    <edge id="-V_3_1" from="J22" to="J17" numLanes="3" speed="13.89" priority="1"/>
    <edge id="V_3_2" from="J18" to="J23" numLanes="3" speed="13.89" priority="1"/>
    <edge id="-V_3_2" from="J23" to="J18" numLanes="3" speed="13.89" priority="1"/>
    <edge id="V_3_3" from="J19" to="J24" numLanes="3" speed="13.89" priority="1"/>
    <edge id="-V_3_3" from="J24" to="J19" numLanes="3" speed="13.89" priority="1"/>
    <edge id="V_3_4" from="J20" to="J25" numLanes="3" speed="13.89" priority="1"/>
    <edge id="-V_3_4" from="J25" to="J20" numLanes="3" speed="13.89" priority="1"/>

    <!-- Boundary edges (top — north) -->
    <edge id="BN_0" from="BN_node_0" to="J1" numLanes="3" speed="13.89" priority="1"/>
    <edge id="-BN_0" from="J1" to="BN_node_0" numLanes="3" speed="13.89" priority="1"/>
    <edge id="BN_1" from="BN_node_1" to="J2" numLanes="3" speed="13.89" priority="1"/>
    <edge id="-BN_1" from="J2" to="BN_node_1" numLanes="3" speed="13.89" priority="1"/>
    <edge id="BN_2" from="BN_node_2" to="J3" numLanes="3" speed="13.89" priority="1"/>
    <edge id="-BN_2" from="J3" to="BN_node_2" numLanes="3" speed="13.89" priority="1"/>
    <edge id="BN_3" from="BN_node_3" to="J4" numLanes="3" speed="13.89" priority="1"/>
    <edge id="-BN_3" from="J4" to="BN_node_3" numLanes="3" speed="13.89" priority="1"/>
    <edge id="BN_4" from="BN_node_4" to="J5" numLanes="3" speed="13.89" priority="1"/>
    <edge id="-BN_4" from="J5" to="BN_node_4" numLanes="3" speed="13.89" priority="1"/>

    <!-- Boundary edges (bottom — south) -->
    <edge id="BS_0" from="J21" to="BS_node_0" numLanes="3" speed="13.89" priority="1"/>
    <edge id="-BS_0" from="BS_node_0" to="J21" numLanes="3" speed="13.89" priority="1"/>
    <edge id="BS_1" from="J22" to="BS_node_1" numLanes="3" speed="13.89" priority="1"/>
    <edge id="-BS_1" from="BS_node_1" to="J22" numLanes="3" speed="13.89" priority="1"/>
    <edge id="BS_2" from="J23" to="BS_node_2" numLanes="3" speed="13.89" priority="1"/>
    <edge id="-BS_2" from="BS_node_2" to="J23" numLanes="3" speed="13.89" priority="1"/>
    <edge id="BS_3" from="J24" to="BS_node_3" numLanes="3" speed="13.89" priority="1"/>
    <edge id="-BS_3" from="BS_node_3" to="J24" numLanes="3" speed="13.89" priority="1"/>
    <edge id="BS_4" from="J25" to="BS_node_4" numLanes="3" speed="13.89" priority="1"/>
    <edge id="-BS_4" from="BS_node_4" to="J25" numLanes="3" speed="13.89" priority="1"/>

    <!-- Boundary edges (left — west) -->
    <edge id="BW_0" from="BW_node_0" to="J1" numLanes="3" speed="13.89" priority="1"/>
    <edge id="-BW_0" from="J1" to="BW_node_0" numLanes="3" speed="13.89" priority="1"/>
    <edge id="BW_1" from="BW_node_1" to="J6" numLanes="3" speed="13.89" priority="1"/>
    <edge id="-BW_1" from="J6" to="BW_node_1" numLanes="3" speed="13.89" priority="1"/>
    <edge id="BW_2" from="BW_node_2" to="J11" numLanes="3" speed="13.89" priority="1"/>
    <edge id="-BW_2" from="J11" to="BW_node_2" numLanes="3" speed="13.89" priority="1"/>
    <edge id="BW_3" from="BW_node_3" to="J16" numLanes="3" speed="13.89" priority="1"/>
    <edge id="-BW_3" from="J16" to="BW_node_3" numLanes="3" speed="13.89" priority="1"/>
    <edge id="BW_4" from="BW_node_4" to="J21" numLanes="3" speed="13.89" priority="1"/>
    <edge id="-BW_4" from="J21" to="BW_node_4" numLanes="3" speed="13.89" priority="1"/>

    <!-- Boundary edges (right — east) -->
    <edge id="BE_0" from="J5" to="BE_node_0" numLanes="3" speed="13.89" priority="1"/>
    <edge id="-BE_0" from="BE_node_0" to="J5" numLanes="3" speed="13.89" priority="1"/>
    <edge id="BE_1" from="J10" to="BE_node_1" numLanes="3" speed="13.89" priority="1"/>
    <edge id="-BE_1" from="BE_node_1" to="J10" numLanes="3" speed="13.89" priority="1"/>
    <edge id="BE_2" from="J15" to="BE_node_2" numLanes="3" speed="13.89" priority="1"/>
    <edge id="-BE_2" from="BE_node_2" to="J15" numLanes="3" speed="13.89" priority="1"/>
    <edge id="BE_3" from="J20" to="BE_node_3" numLanes="3" speed="13.89" priority="1"/>
    <edge id="-BE_3" from="BE_node_3" to="J20" numLanes="3" speed="13.89" priority="1"/>
    <edge id="BE_4" from="J25" to="BE_node_4" numLanes="3" speed="13.89" priority="1"/>
    <edge id="-BE_4" from="BE_node_4" to="J25" numLanes="3" speed="13.89" priority="1"/>

</edges>
