<?xml version="1.0" encoding="UTF-8"?>

<!-- generated on 2025-11-11 23:50:27 by Eclipse SUMO sumo Version 1.24.0
-->

<sumoConfiguration xmlns:xsi="http://www.w3.org/2001/XMLSchema-instance" xsi:noNamespaceSchemaLocation="http://sumo.dlr.de/xsd/sumoConfiguration.xsd">

    <input>
        <net-file value="marl-proj.net.xml"/>
        <route-files value="marl-proj.rou.xml"/>
        <additional-files value="marl-proj.add.xml"/>
    </input>

</sumoConfiguration>
