<?xml version="1.0" encoding="UTF-8"?>

<!-- generated on 2025-11-11 23:50:57 by Eclipse SUMO netedit Version 1.24.0
<neteditConfiguration xmlns:xsi="http://www.w3.org/2001/XMLSchema-instance" xsi:noNamespaceSchemaLocation="http://sumo.dlr.de/xsd/neteditConfiguration.xsd">

    <input>
        <sumocfg-file value="E:\RP\traffic-marl-X\marl-proj.sumocfg"/>
        <additional-files value="E:\RP\traffic-marl-X\marl-proj.add.xml"/>
        <route-files value="E:\RP\traffic-marl-X\marl-proj.rou.xml"/>
        <sumo-net-file value="E:\RP\traffic-marl-X\marl-proj.net.xml"/>
    </input>

    <output>
        <tls-file value="E:\RP\traffic-marl-X\marl-proj.ttl.xml"/>
        <output-file value="E:\RP\traffic-marl-X\marl-proj.net.xml"/>
    </output>

    <processing>
        <geometry.min-radius.fix.railways value="false"/>
        <geometry.avoid-overlap value="false"/>
        <geometry.max-grade.fix value="false"/>
        <offset.disable-normalization value="true"/>
        <lefthand value="0"/>
    </processing>

    <junctions>
        <no-turnarounds value="true"/>
        <junctions.corner-detail value="5"/>
        <junctions.limit-turn-speed value="5.50"/>
        <rectangular-lane-cut value="0"/>
    </junctions>

    <pedestrian>
        <walkingareas value="0"/>
    </pedestrian>

</neteditConfiguration>
-->

<net version="1.20" junctionCornerDetail="5" limitTurnSpeed="5.50" avoidOverlap="0" xmlns:xsi="http://www.w3.org/2001/XMLSchema-instance" xsi:noNamespaceSchemaLocation="http://sumo.dlr.de/xsd/net_file.xsd">

    <location netOffset="0.00,0.00" convBoundary="150.00,150.00,750.00,750.00" origBoundary="-10000000000.00,-10000000000.00,10000000000.00,10000000000.00" projParameter="!"/>

    <edge id=":J1_0" function="internal">
        <lane id=":J1_0_0" index="0" speed="6.51" length="9.03" shape="292.00,613.60 291.65,611.15 290.60,609.40 288.85,608.35 286.40,608.00"/>
    </edge>
    <edge id=":J1_1" function="internal">
        <lane id=":J1_1_0" index="0" speed="13.89" length="27.20" shape="295.20,613.60 295.20,586.40"/>
    </edge>
    <edge id=":J1_2" function="internal">
        <lane id=":J1_2_0" index="0" speed="10.36" length="24.51" shape="298.40,613.60 299.35,606.95 302.20,602.20 306.95,599.35 313.60,598.40"/>
    </edge>
    <edge id=":J1_3" function="internal">
        <lane id=":J1_3_0" index="0" speed="6.51" length="9.03" shape="313.60,608.00 311.15,608.35 309.40,609.40 308.35,611.15 308.00,613.60"/>
    </edge>
    <edge id=":J1_4" function="internal">
        <lane id=":J1_4_0" index="0" speed="13.89" length="27.20" shape="313.60,604.80 286.40,604.80"/>
    </edge>
    <edge id=":J1_5" function="internal">
        <lane id=":J1_5_0" index="0" speed="10.36" length="24.51" shape="313.60,601.60 306.95,600.65 302.20,597.80 299.35,593.05 298.40,586.40"/>
    </edge>
    <edge id=":J1_6" function="internal">
        <lane id=":J1_6_0" index="0" speed="6.51" length="9.03" shape="308.00,586.40 308.35,588.85 309.40,590.60 311.15,591.65 313.60,592.00"/>
    </edge>
    <edge id=":J1_7" function="internal">
        <lane id=":J1_7_0" index="0" speed="13.89" length="27.20" shape="304.80,586.40 304.80,613.60"/>
    </edge>
    <edge id=":J1_8" function="internal">
        <lane id=":J1_8_0" index="0" speed="10.36" length="24.51" shape="301.60,586.40 300.65,593.05 297.80,597.80 293.05,600.65 286.40,601.60"/>
    </edge>
    <edge id=":J1_9" function="internal">
        <lane id=":J1_9_0" index="0" speed="6.51" length="9.03" shape="286.40,592.00 288.85,591.65 290.60,590.60 291.65,588.85 292.00,586.40"/>
    </edge>
    <edge id=":J1_10" function="internal">
        <lane id=":J1_10_0" index="0" speed="13.89" length="27.20" shape="286.40,595.20 313.60,595.20"/>
    </edge>
    <edge id=":J1_11" function="internal">
        <lane id=":J1_11_0" index="0" speed="10.36" length="24.51" shape="286.40,598.40 293.05,599.35 297.80,602.20 300.65,606.95 301.60,613.60"/>
    </edge>
    <edge id=":J2_0" function="internal">
        <lane id=":J2_0_0" index="0" speed="6.51" length="9.03" shape="292.00,313.60 291.65,311.15 290.60,309.40 288.85,308.35 286.40,308.00"/>
    </edge>
    <edge id=":J2_1" function="internal">
        <lane id=":J2_1_0" index="0" speed="13.89" length="27.20" shape="295.20,313.60 295.20,286.40"/>
    </edge>
    <edge id=":J2_2" function="internal">
        <lane id=":J2_2_0" index="0" speed="10.36" length="24.51" shape="298.40,313.60 299.35,306.95 302.20,302.20 306.95,299.35 313.60,298.40"/>
    </edge>
    <edge id=":J2_3" function="internal">
        <lane id=":J2_3_0" index="0" speed="6.51" length="9.03" shape="313.60,308.00 311.15,308.35 309.40,309.40 308.35,311.15 308.00,313.60"/>
    </edge>
    <edge id=":J2_4" function="internal">
        <lane id=":J2_4_0" index="0" speed="13.89" length="27.20" shape="313.60,304.80 286.40,304.80"/>
    </edge>
    <edge id=":J2_5" function="internal">
        <lane id=":J2_5_0" index="0" speed="10.36" length="24.51" shape="313.60,301.60 306.95,300.65 302.20,297.80 299.35,293.05 298.40,286.40"/>
    </edge>
    <edge id=":J2_6" function="internal">
        <lane id=":J2_6_0" index="0" speed="6.51" length="9.03" shape="308.00,286.40 308.35,288.85 309.40,290.60 311.15,291.65 313.60,292.00"/>
    </edge>
    <edge id=":J2_7" function="internal">
        <lane id=":J2_7_0" index="0" speed="13.89" length="27.20" shape="304.80,286.40 304.80,313.60"/>
    </edge>
    <edge id=":J2_8" function="internal">
        <lane id=":J2_8_0" index="0" speed="10.36" length="24.51" shape="301.60,286.40 300.65,293.05 297.80,297.80 293.05,300.65 286.40,301.60"/>
    </edge>
    <edge id=":J2_9" function="internal">
        <lane id=":J2_9_0" index="0" speed="6.51" length="9.03" shape="286.40,292.00 288.85,291.65 290.60,290.60 291.65,288.85 292.00,286.40"/>
    </edge>
    <edge id=":J2_10" function="internal">
        <lane id=":J2_10_0" index="0" speed="13.89" length="27.20" shape="286.40,295.20 313.60,295.20"/>
    </edge>
    <edge id=":J2_11" function="internal">
        <lane id=":J2_11_0" index="0" speed="10.36" length="24.51" shape="286.40,298.40 293.05,299.35 297.80,302.20 300.65,306.95 301.60,313.60"/>
    </edge>
    <edge id=":J3_0" function="internal">
        <lane id=":J3_0_0" index="0" speed="6.51" length="9.03" shape="592.00,613.60 591.65,611.15 590.60,609.40 588.85,608.35 586.40,608.00"/>
    </edge>
    <edge id=":J3_1" function="internal">
        <lane id=":J3_1_0" index="0" speed="13.89" length="27.20" shape="595.20,613.60 595.20,586.40"/>
    </edge>
    <edge id=":J3_2" function="internal">
        <lane id=":J3_2_0" index="0" speed="10.36" length="24.51" shape="598.40,613.60 599.35,606.95 602.20,602.20 606.95,599.35 613.60,598.40"/>
    </edge>
    <edge id=":J3_3" function="internal">
        <lane id=":J3_3_0" index="0" speed="6.51" length="9.03" shape="613.60,608.00 611.15,608.35 609.40,609.40 608.35,611.15 608.00,613.60"/>
    </edge>
    <edge id=":J3_4" function="internal">
        <lane id=":J3_4_0" index="0" speed="13.89" length="27.20" shape="613.60,604.80 586.40,604.80"/>
    </edge>
    <edge id=":J3_5" function="internal">
        <lane id=":J3_5_0" index="0" speed="10.36" length="24.51" shape="613.60,601.60 606.95,600.65 602.20,597.80 599.35,593.05 598.40,586.40"/>
    </edge>
    <edge id=":J3_6" function="internal">
        <lane id=":J3_6_0" index="0" speed="6.51" length="9.03" shape="608.00,586.40 608.35,588.85 609.40,590.60 611.15,591.65 613.60,592.00"/>
    </edge>
    <edge id=":J3_7" function="internal">
        <lane id=":J3_7_0" index="0" speed="13.89" length="27.20" shape="604.80,586.40 604.80,613.60"/>
    </edge>
    <edge id=":J3_8" function="internal">
        <lane id=":J3_8_0" index="0" speed="10.36" length="24.51" shape="601.60,586.40 600.65,593.05 597.80,597.80 593.05,600.65 586.40,601.60"/>
    </edge>
    <edge id=":J3_9" function="internal">
        <lane id=":J3_9_0" index="0" speed="6.51" length="9.03" shape="586.40,592.00 588.85,591.65 590.60,590.60 591.65,588.85 592.00,586.40"/>
    </edge>
    <edge id=":J3_10" function="internal">
        <lane id=":J3_10_0" index="0" speed="13.89" length="27.20" shape="586.40,595.20 613.60,595.20"/>
    </edge>
    <edge id=":J3_11" function="internal">
        <lane id=":J3_11_0" index="0" speed="10.36" length="24.51" shape="586.40,598.40 593.05,599.35 597.80,602.20 600.65,606.95 601.60,613.60"/>
    </edge>
    <edge id=":J4_0" function="internal">
        <lane id=":J4_0_0" index="0" speed="6.51" length="9.03" shape="592.00,313.60 591.65,311.15 590.60,309.40 588.85,308.35 586.40,308.00"/>
    </edge>
    <edge id=":J4_1" function="internal">
        <lane id=":J4_1_0" index="0" speed="13.89" length="27.20" shape="595.20,313.60 595.20,286.40"/>
    </edge>
    <edge id=":J4_2" function="internal">
        <lane id=":J4_2_0" index="0" speed="10.36" length="24.51" shape="598.40,313.60 599.35,306.95 602.20,302.20 606.95,299.35 613.60,298.40"/>
    </edge>
    <edge id=":J4_3" function="internal">
        <lane id=":J4_3_0" index="0" speed="6.51" length="9.03" shape="613.60,308.00 611.15,308.35 609.40,309.40 608.35,311.15 608.00,313.60"/>
    </edge>
    <edge id=":J4_4" function="internal">
        <lane id=":J4_4_0" index="0" speed="13.89" length="27.20" shape="613.60,304.80 586.40,304.80"/>
    </edge>
    <edge id=":J4_5" function="internal">
        <lane id=":J4_5_0" index="0" speed="10.36" length="24.51" shape="613.60,301.60 606.95,300.65 602.20,297.80 599.35,293.05 598.40,286.40"/>
    </edge>
    <edge id=":J4_6" function="internal">
        <lane id=":J4_6_0" index="0" speed="6.51" length="9.03" shape="608.00,286.40 608.35,288.85 609.40,290.60 611.15,291.65 613.60,292.00"/>
    </edge>
    <edge id=":J4_7" function="internal">
        <lane id=":J4_7_0" index="0" speed="13.89" length="27.20" shape="604.80,286.40 604.80,313.60"/>
    </edge>
    <edge id=":J4_8" function="internal">
        <lane id=":J4_8_0" index="0" speed="10.36" length="24.51" shape="601.60,286.40 600.65,293.05 597.80,297.80 593.05,300.65 586.40,301.60"/>
    </edge>
    <edge id=":J4_9" function="internal">
        <lane id=":J4_9_0" index="0" speed="6.51" length="9.03" shape="586.40,292.00 588.85,291.65 590.60,290.60 591.65,288.85 592.00,286.40"/>
    </edge>
    <edge id=":J4_10" function="internal">
        <lane id=":J4_10_0" index="0" speed="13.89" length="27.20" shape="586.40,295.20 613.60,295.20"/>
    </edge>
    <edge id=":J4_11" function="internal">
        <lane id=":J4_11_0" index="0" speed="10.36" length="24.51" shape="586.40,298.40 593.05,299.35 597.80,302.20 600.65,306.95 601.60,313.60"/>
    </edge>

    <edge id="-E0" from="J1" to="J0" priority="-1">
        <lane id="-E0_0" index="0" speed="13.89" length="100.00" shape="308.00,613.60 308.00,750.00"/>
        <lane id="-E0_1" index="1" speed="13.89" length="100.00" shape="304.80,613.60 304.80,750.00"/>
        <lane id="-E0_2" index="2" speed="13.89" length="100.00" shape="301.60,613.60 301.60,750.00"/>
    </edge>
    <edge id="-E1" from="J2" to="J1" priority="-1">
        <lane id="-E1_0" index="0" speed="13.89" length="100.00" shape="308.00,313.60 308.00,586.40"/>
        <lane id="-E1_1" index="1" speed="13.89" length="100.00" shape="304.80,313.60 304.80,586.40"/>
        <lane id="-E1_2" index="2" speed="13.89" length="100.00" shape="301.60,313.60 301.60,586.40"/>
    </edge>
    <edge id="-E10" from="J11" to="J2" priority="-1">
        <lane id="-E10_0" index="0" speed="13.89" length="100.00" shape="308.00,150.00 308.00,286.40"/>
        <lane id="-E10_1" index="1" speed="13.89" length="100.00" shape="304.80,150.00 304.80,286.40"/>
        <lane id="-E10_2" index="2" speed="13.89" length="100.00" shape="301.60,150.00 301.60,286.40"/>
    </edge>
    <edge id="-E11" from="J4" to="J2" priority="-1">
        <lane id="-E11_0" index="0" speed="13.89" length="100.00" shape="586.40,308.00 313.60,308.00"/>
        <lane id="-E11_1" index="1" speed="13.89" length="100.00" shape="586.40,304.80 313.60,304.80"/>
        <lane id="-E11_2" index="2" speed="13.89" length="100.00" shape="586.40,301.60 313.60,301.60"/>
    </edge>
    <edge id="-E15" from="J4" to="J3" priority="-1">
        <lane id="-E15_0" index="0" speed="13.89" length="100.00" shape="608.00,313.60 608.00,586.40"/>
        <lane id="-E15_1" index="1" speed="13.89" length="100.00" shape="604.80,313.60 604.80,586.40"/>
        <lane id="-E15_2" index="2" speed="13.89" length="100.00" shape="601.60,313.60 601.60,586.40"/>
    </edge>
    <edge id="-E16" from="J1" to="J3" priority="-1">
        <lane id="-E16_0" index="0" speed="13.89" length="100.00" shape="313.60,592.00 586.40,592.00"/>
        <lane id="-E16_1" index="1" speed="13.89" length="100.00" shape="313.60,595.20 586.40,595.20"/>
        <lane id="-E16_2" index="2" speed="13.89" length="100.00" shape="313.60,598.40 586.40,598.40"/>
    </edge>
    <edge id="-E17" from="J5" to="J3" priority="-1">
        <lane id="-E17_0" index="0" speed="13.89" length="100.00" shape="592.00,750.00 592.00,613.60"/>
        <lane id="-E17_1" index="1" speed="13.89" length="100.00" shape="595.20,750.00 595.20,613.60"/>
        <lane id="-E17_2" index="2" speed="13.89" length="100.00" shape="598.40,750.00 598.40,613.60"/>
    </edge>
    <edge id="-E18" from="J6" to="J3" priority="-1">
        <lane id="-E18_0" index="0" speed="13.89" length="100.00" shape="750.00,608.00 613.60,608.00"/>
        <lane id="-E18_1" index="1" speed="13.89" length="100.00" shape="750.00,604.80 613.60,604.80"/>
        <lane id="-E18_2" index="2" speed="13.89" length="100.00" shape="750.00,601.60 613.60,601.60"/>
    </edge>
    <edge id="-E6" from="J7" to="J1" priority="-1">
        <lane id="-E6_0" index="0" speed="13.89" length="100.00" shape="150.00,592.00 286.40,592.00"/>
        <lane id="-E6_1" index="1" speed="13.89" length="100.00" shape="150.00,595.20 286.40,595.20"/>
        <lane id="-E6_2" index="2" speed="13.89" length="100.00" shape="150.00,598.40 286.40,598.40"/>
    </edge>
    <edge id="-E7" from="J8" to="J2" priority="-1">
        <lane id="-E7_0" index="0" speed="13.89" length="100.00" shape="150.00,292.00 286.40,292.00"/>
        <lane id="-E7_1" index="1" speed="13.89" length="100.00" shape="150.00,295.20 286.40,295.20"/>
        <lane id="-E7_2" index="2" speed="13.89" length="100.00" shape="150.00,298.40 286.40,298.40"/>
    </edge>
    <edge id="-E8" from="J9" to="J4" priority="-1">
        <lane id="-E8_0" index="0" speed="13.89" length="100.00" shape="750.00,308.00 613.60,308.00"/>
        <lane id="-E8_1" index="1" speed="13.89" length="100.00" shape="750.00,304.80 613.60,304.80"/>
        <lane id="-E8_2" index="2" speed="13.89" length="100.00" shape="750.00,301.60 613.60,301.60"/>
    </edge>
    <edge id="-E9" from="J10" to="J4" priority="-1">
        <lane id="-E9_0" index="0" speed="13.89" length="100.00" shape="608.00,150.00 608.00,286.40"/>
        <lane id="-E9_1" index="1" speed="13.89" length="100.00" shape="604.80,150.00 604.80,286.40"/>
        <lane id="-E9_2" index="2" speed="13.89" length="100.00" shape="601.60,150.00 601.60,286.40"/>
    </edge>
    <edge id="E0" from="J0" to="J1" priority="-1" length="100.00">
        <lane id="E0_0" index="0" speed="13.89" length="100.00" shape="292.00,750.00 292.00,613.60"/>
        <lane id="E0_1" index="1" speed="13.89" length="100.00" shape="295.20,750.00 295.20,613.60"/>
        <lane id="E0_2" index="2" speed="13.89" length="100.00" shape="298.40,750.00 298.40,613.60"/>
    </edge>
    <edge id="E1" from="J1" to="J2" priority="-1" length="100.00">
        <lane id="E1_0" index="0" speed="13.89" length="100.00" shape="292.00,586.40 292.00,313.60"/>
        <lane id="E1_1" index="1" speed="13.89" length="100.00" shape="295.20,586.40 295.20,313.60"/>
        <lane id="E1_2" index="2" speed="13.89" length="100.00" shape="298.40,586.40 298.40,313.60"/>
    </edge>
    <edge id="E10" from="J2" to="J11" priority="-1" length="100.00">
        <lane id="E10_0" index="0" speed="13.89" length="100.00" shape="292.00,286.40 292.00,150.00"/>
        <lane id="E10_1" index="1" speed="13.89" length="100.00" shape="295.20,286.40 295.20,150.00"/>
        <lane id="E10_2" index="2" speed="13.89" length="100.00" shape="298.40,286.40 298.40,150.00"/>
    </edge>
    <edge id="E11" from="J2" to="J4" priority="-1" length="100.00">
        <lane id="E11_0" index="0" speed="13.89" length="100.00" shape="313.60,292.00 586.40,292.00"/>
        <lane id="E11_1" index="1" speed="13.89" length="100.00" shape="313.60,295.20 586.40,295.20"/>
        <lane id="E11_2" index="2" speed="13.89" length="100.00" shape="313.60,298.40 586.40,298.40"/>
    </edge>
    <edge id="E15" from="J3" to="J4" priority="-1">
        <lane id="E15_0" index="0" speed="13.89" length="100.00" shape="592.00,586.40 592.00,313.60"/>
        <lane id="E15_1" index="1" speed="13.89" length="100.00" shape="595.20,586.40 595.20,313.60"/>
        <lane id="E15_2" index="2" speed="13.89" length="100.00" shape="598.40,586.40 598.40,313.60"/>
    </edge>
    <edge id="E16" from="J3" to="J1" priority="-1">
        <lane id="E16_0" index="0" speed="13.89" length="100.00" shape="586.40,608.00 313.60,608.00"/>
        <lane id="E16_1" index="1" speed="13.89" length="100.00" shape="586.40,604.80 313.60,604.80"/>
        <lane id="E16_2" index="2" speed="13.89" length="100.00" shape="586.40,601.60 313.60,601.60"/>
    </edge>
    <edge id="E17" from="J3" to="J5" priority="-1">
        <lane id="E17_0" index="0" speed="13.89" length="100.00" shape="608.00,613.60 608.00,750.00"/>
        <lane id="E17_1" index="1" speed="13.89" length="100.00" shape="604.80,613.60 604.80,750.00"/>
        <lane id="E17_2" index="2" speed="13.89" length="100.00" shape="601.60,613.60 601.60,750.00"/>
    </edge>
    <edge id="E18" from="J3" to="J6" priority="-1">
        <lane id="E18_0" index="0" speed="13.89" length="100.00" shape="613.60,592.00 750.00,592.00"/>
        <lane id="E18_1" index="1" speed="13.89" length="100.00" shape="613.60,595.20 750.00,595.20"/>
        <lane id="E18_2" index="2" speed="13.89" length="100.00" shape="613.60,598.40 750.00,598.40"/>
    </edge>
    <edge id="E6" from="J1" to="J7" priority="-1" length="100.00">
        <lane id="E6_0" index="0" speed="13.89" length="100.00" shape="286.40,608.00 150.00,608.00"/>
        <lane id="E6_1" index="1" speed="13.89" length="100.00" shape="286.40,604.80 150.00,604.80"/>
        <lane id="E6_2" index="2" speed="13.89" length="100.00" shape="286.40,601.60 150.00,601.60"/>
    </edge>
    <edge id="E7" from="J2" to="J8" priority="-1" length="100.00">
        <lane id="E7_0" index="0" speed="13.89" length="100.00" shape="286.40,308.00 150.00,308.00"/>
        <lane id="E7_1" index="1" speed="13.89" length="100.00" shape="286.40,304.80 150.00,304.80"/>
        <lane id="E7_2" index="2" speed="13.89" length="100.00" shape="286.40,301.60 150.00,301.60"/>
    </edge>
    <edge id="E8" from="J4" to="J9" priority="-1" length="100.00">
        <lane id="E8_0" index="0" speed="13.89" length="100.00" shape="613.60,292.00 750.00,292.00"/>
        <lane id="E8_1" index="1" speed="13.89" length="100.00" shape="613.60,295.20 750.00,295.20"/>
        <lane id="E8_2" index="2" speed="13.89" length="100.00" shape="613.60,298.40 750.00,298.40"/>
    </edge>
    <edge id="E9" from="J4" to="J10" priority="-1" length="100.00">
        <lane id="E9_0" index="0" speed="13.89" length="100.00" shape="592.00,286.40 592.00,150.00"/>
        <lane id="E9_1" index="1" speed="13.89" length="100.00" shape="595.20,286.40 595.20,150.00"/>
        <lane id="E9_2" index="2" speed="13.89" length="100.00" shape="598.40,286.40 598.40,150.00"/>
    </edge>

    <tlLogic id="J1" type="static" programID="0" offset="0">
        <phase duration="25" state="GGrgrrGGrgrr" next="1"/>
        <phase duration="3"  state="GrrGyrGrrGyr" next="2"/>
        <phase duration="25" state="GrrGgrGrrGGr" next="3"/>
        <phase duration="3"  state="GrrGryGrrGry" next="4"/>
        <phase duration="8"  state="GrrGrGGrrGrG" next="5"/>
        <phase duration="3"  state="GryGrrGryGrr" next="6"/>
        <phase duration="8"  state="GrGGrrGrGGrr" next="7"/>
        <phase duration="3"  state="GyrgrrGyrgrr" next="0"/>
    </tlLogic>
    <tlLogic id="J2" type="static" programID="0" offset="0">
        <phase duration="25" state="GGrGrrGGrGrr" next="1"/>
        <phase duration="3"  state="GrrGyrGrrGyr" next="2"/>
        <phase duration="25" state="GrrGgrGrrGGr" next="3"/>
        <phase duration="3"  state="GrrGryGrrGry" next="4"/>
        <phase duration="8"  state="GrrGrGGrrGrG" next="5"/>
        <phase duration="3"  state="GryGrrGryGrr" next="6"/>
        <phase duration="8"  state="GrGGrrGrGGrr" next="7"/>
        <phase duration="3"  state="GyrgrrGyrgrr" next="0"/>
    </tlLogic>
    <tlLogic id="J3" type="static" programID="0" offset="0">
        <phase duration="25" state="GGrgrrGGrgrr" next="1"/>
        <phase duration="3"  state="GrrGyrGrrGyr" next="2"/>
        <phase duration="25" state="GrrGGrGrrGGr" next="3"/>
        <phase duration="3"  state="GrrGryGrrGry" next="4"/>
        <phase duration="8"  state="GrrGrGGrrGrG" next="5"/>
        <phase duration="3"  state="GryGrrGryGrr" next="6"/>
        <phase duration="8"  state="GrGGrrGrGGrr" next="7"/>
        <phase duration="3"  state="GyrgrrGyrgrr" next="0"/>
    </tlLogic>
    <tlLogic id="J4" type="static" programID="0" offset="0">
        <phase duration="25" state="GGrgrrGGrgrr" next="1"/>
        <phase duration="3"  state="GrrGyrGrrGyr" next="2"/>
        <phase duration="25" state="GrrGgrGrrGGr" next="3"/>
        <phase duration="3"  state="GrrGryGrrGry" next="4"/>
        <phase duration="8"  state="GrrGrGGrrGrG" next="5"/>
        <phase duration="3"  state="GryGrrGryGrr" next="6"/>
        <phase duration="8"  state="GrGGrrGrGGrr" next="7"/>
        <phase duration="3"  state="GyrgrrGyrgrr" next="0"/>
    </tlLogic>

    <junction id="J0" type="dead_end" x="300.00" y="750.00" incLanes="-E0_0 -E0_1 -E0_2" intLanes="" shape="300.00,750.00 309.60,750.00 300.00,750.00"/>
    <junction id="J1" type="traffic_light" x="300.00" y="600.00" incLanes="E0_0 E0_1 E0_2 E16_0 E16_1 E16_2 -E1_0 -E1_1 -E1_2 -E6_0 -E6_1 -E6_2" intLanes=":J1_0_0 :J1_1_0 :J1_2_0 :J1_3_0 :J1_4_0 :J1_5_0 :J1_6_0 :J1_7_0 :J1_8_0 :J1_9_0 :J1_10_0 :J1_11_0" shape="290.40,613.60 309.60,613.60 310.04,611.38 310.60,610.60 311.38,610.04 312.38,609.71 313.60,609.60 313.60,590.40 311.38,589.96 310.60,589.40 310.04,588.62 309.71,587.62 309.60,586.40 290.40,586.40 289.96,588.62 289.40,589.40 288.62,589.96 287.62,590.29 286.40,590.40 286.40,609.60 288.62,610.04 289.40,610.60 289.96,611.38 290.29,612.38">
        <request index="0"  response="000000000000" foes="000000000000" cont="0"/>
        <request index="1"  response="000000000000" foes="110100010000" cont="0"/>
        <request index="2"  response="000010000000" foes="100010110000" cont="0"/>
        <request index="3"  response="000000000000" foes="000000000000" cont="0"/>
        <request index="4"  response="000010000110" foes="100010000110" cont="0"/>
        <request index="5"  response="010110000100" foes="010110000100" cont="0"/>
        <request index="6"  response="000000000000" foes="000000000000" cont="0"/>
        <request index="7"  response="000000000000" foes="010000110100" cont="0"/>
        <request index="8"  response="000000000010" foes="110000100010" cont="0"/>
        <request index="9"  response="000000000000" foes="000000000000" cont="0"/>
        <request index="10" response="000110000010" foes="000110100010" cont="0"/>
        <request index="11" response="000100010110" foes="000100010110" cont="0"/>
    </junction>
    <junction id="J10" type="dead_end" x="600.00" y="100.00" incLanes="E9_0 E9_1 E9_2" intLanes="" shape="600.00,150.00 590.40,150.00 600.00,150.00"/>
    <junction id="J11" type="dead_end" x="300.00" y="100.00" incLanes="E10_0 E10_1 E10_2" intLanes="" shape="300.00,150.00 290.40,150.00 300.00,150.00"/>
    <junction id="J2" type="traffic_light" x="300.00" y="300.00" incLanes="E1_0 E1_1 E1_2 -E11_0 -E11_1 -E11_2 -E10_0 -E10_1 -E10_2 -E7_0 -E7_1 -E7_2" intLanes=":J2_0_0 :J2_1_0 :J2_2_0 :J2_3_0 :J2_4_0 :J2_5_0 :J2_6_0 :J2_7_0 :J2_8_0 :J2_9_0 :J2_10_0 :J2_11_0" shape="290.40,313.60 309.60,313.60 310.04,311.38 310.60,310.60 311.38,310.04 312.38,309.71 313.60,309.60 313.60,290.40 311.38,289.96 310.60,289.40 310.04,288.62 309.71,287.62 309.60,286.40 290.40,286.40 289.96,288.62 289.40,289.40 288.62,289.96 287.62,290.29 286.40,290.40 286.40,309.60 288.62,310.04 289.40,310.60 289.96,311.38 290.29,312.38">
        <request index="0"  response="000000000000" foes="000000000000" cont="0"/>
        <request index="1"  response="000000000000" foes="110100010000" cont="0"/>
        <request index="2"  response="000010000000" foes="100010110000" cont="0"/>
        <request index="3"  response="000000000000" foes="000000000000" cont="0"/>
        <request index="4"  response="000010000110" foes="100010000110" cont="0"/>
        <request index="5"  response="010110000100" foes="010110000100" cont="0"/>
        <request index="6"  response="000000000000" foes="000000000000" cont="0"/>
        <request index="7"  response="000000000000" foes="010000110100" cont="0"/>
        <request index="8"  response="000000000010" foes="110000100010" cont="0"/>
        <request index="9"  response="000000000000" foes="000000000000" cont="0"/>
        <request index="10" response="000110000010" foes="000110100010" cont="0"/>
        <request index="11" response="000100010110" foes="000100010110" cont="0"/>
    </junction>
    <junction id="J3" type="traffic_light" x="600.00" y="600.00" incLanes="-E17_0 -E17_1 -E17_2 -E18_0 -E18_1 -E18_2 -E15_0 -E15_1 -E15_2 -E16_0 -E16_1 -E16_2" intLanes=":J3_0_0 :J3_1_0 :J3_2_0 :J3_3_0 :J3_4_0 :J3_5_0 :J3_6_0 :J3_7_0 :J3_8_0 :J3_9_0 :J3_10_0 :J3_11_0" shape="590.40,613.60 609.60,613.60 610.04,611.38 610.60,610.60 611.38,610.04 612.38,609.71 613.60,609.60 613.60,590.40 611.38,589.96 610.60,589.40 610.04,588.62 609.71,587.62 609.60,586.40 590.40,586.40 589.96,588.62 589.40,589.40 588.62,589.96 587.62,590.29 586.40,590.40 586.40,609.60 588.62,610.04 589.40,610.60 589.96,611.38 590.29,612.38">
        <request index="0"  response="000000000000" foes="000000000000" cont="0"/>
        <request index="1"  response="000000000000" foes="110100010000" cont="0"/>
        <request index="2"  response="000010000000" foes="100010110000" cont="0"/>
        <request index="3"  response="000000000000" foes="000000000000" cont="0"/>
        <request index="4"  response="000010000110" foes="100010000110" cont="0"/>
        <request index="5"  response="010110000100" foes="010110000100" cont="0"/>
        <request index="6"  response="000000000000" foes="000000000000" cont="0"/>
        <request index="7"  response="000000000000" foes="010000110100" cont="0"/>
        <request index="8"  response="000000000010" foes="110000100010" cont="0"/>
        <request index="9"  response="000000000000" foes="000000000000" cont="0"/>
        <request index="10" response="000110000010" foes="000110100010" cont="0"/>
        <request index="11" response="000100010110" foes="000100010110" cont="0"/>
    </junction>
    <junction id="J4" type="traffic_light" x="600.00" y="300.00" incLanes="E15_0 E15_1 E15_2 -E8_0 -E8_1 -E8_2 -E9_0 -E9_1 -E9_2 E11_0 E11_1 E11_2" intLanes=":J4_0_0 :J4_1_0 :J4_2_0 :J4_3_0 :J4_4_0 :J4_5_0 :J4_6_0 :J4_7_0 :J4_8_0 :J4_9_0 :J4_10_0 :J4_11_0" shape="590.40,313.60 609.60,313.60 610.04,311.38 610.60,310.60 611.38,310.04 612.38,309.71 613.60,309.60 613.60,290.40 611.38,289.96 610.60,289.40 610.04,288.62 609.71,287.62 609.60,286.40 590.40,286.40 589.96,288.62 589.40,289.40 588.62,289.96 587.62,290.29 586.40,290.40 586.40,309.60 588.62,310.04 589.40,310.60 589.96,311.38 590.29,312.38">
        <request index="0"  response="000000000000" foes="000000000000" cont="0"/>
        <request index="1"  response="000000000000" foes="110100010000" cont="0"/>
        <request index="2"  response="000010000000" foes="100010110000" cont="0"/>
        <request index="3"  response="000000000000" foes="000000000000" cont="0"/>
        <request index="4"  response="000010000110" foes="100010000110" cont="0"/>
        <request index="5"  response="010110000100" foes="010110000100" cont="0"/>
        <request index="6"  response="000000000000" foes="000000000000" cont="0"/>
        <request index="7"  response="000000000000" foes="010000110100" cont="0"/>
        <request index="8"  response="000000000010" foes="110000100010" cont="0"/>
        <request index="9"  response="000000000000" foes="000000000000" cont="0"/>
        <request index="10" response="000110000010" foes="000110100010" cont="0"/>
        <request index="11" response="000100010110" foes="000100010110" cont="0"/>
    </junction>
    <junction id="J5" type="dead_end" x="600.00" y="750.00" incLanes="E17_0 E17_1 E17_2" intLanes="" shape="600.00,750.00 609.60,750.00 600.00,750.00"/>
    <junction id="J6" type="dead_end" x="750.00" y="600.00" incLanes="E18_0 E18_1 E18_2" intLanes="" shape="750.00,600.00 750.00,590.40 750.00,600.00"/>
    <junction id="J7" type="dead_end" x="100.00" y="600.00" incLanes="E6_0 E6_1 E6_2" intLanes="" shape="150.00,600.00 150.00,609.60 150.00,600.00"/>
    <junction id="J8" type="dead_end" x="100.00" y="300.00" incLanes="E7_0 E7_1 E7_2" intLanes="" shape="150.00,300.00 150.00,309.60 150.00,300.00"/>
    <junction id="J9" type="dead_end" x="750.00" y="300.00" incLanes="E8_0 E8_1 E8_2" intLanes="" shape="750.00,300.00 750.00,290.40 750.00,300.00"/>

    <connection from="-E1" to="-E16" fromLane="0" toLane="0" via=":J1_6_0" tl="J1" linkIndex="6" dir="r" state="O"/>
    <connection from="-E1" to="-E0" fromLane="1" toLane="1" via=":J1_7_0" tl="J1" linkIndex="7" dir="s" state="O"/>